/*---------------------------------------------------------------------------*\
| =========                 |                                                 |
| \\      /  F ield         | OpenFOAM: The Open Source CFD Toolbox           |
|  \\    /   O peration     | Version:  2112                                  |
|   \\  /    A nd           | Website:  www.openfoam.com                      |
|    \\/     M anipulation  |                                                 |
\*---------------------------------------------------------------------------*/
Build  : _d44c8318-20220111 OPENFOAM=2112 version=2112
Arch   : "LSB;label=32;scalar=64"
Exec   : decomposePar -force -fileHandler uncollated -case OpenFOAMCase
Date   : Aug 09 2024
Time   : 04:04:18
Host   : precicevm
PID    : 8495
I/O    : uncollated
Case   : /home/vagrant/Desktop/FOAMySeesExampleCases/FixedFixedBeam/RunCase/OpenFOAMCase
nProcs : 1
trapFpe: Floating point exception trapping enabled (FOAM_SIGFPE).
fileModificationChecking : Monitoring run-time modified files using timeStampMaster (fileModificationSkew 5, maxFileModificationPolls 20)
allowSystemOperations : Allowing user-supplied system call operations

// * * * * * * * * * * * * * * * * * * * * * * * * * * * * * * * * * * * * * //
Create time

Overriding DebugSwitches according to controlDict
    overset         0;

    dynamicOversetFvMesh 0;

    cellVolumeWeight 0;

    level (unregistered)
    lduMatrix       2;

    libs (unregistered)
Overriding OptimisationSwitches according to controlDict
    fileHandler (unregistered)
    maxThreadFileBufferSize 1e+09;

    maxMasterFileBufferSize 1e+09;

Overriding fileHandler to collated
I/O    : collated [threaded] (maxThreadFileBufferSize = 1e+09).
         Requires buffer large enough to collect all data or thread support
         enabled in MPI. If MPI thread support cannot be enabled, deactivate
         threading by setting maxThreadFileBufferSize to 0 in
         OpenFOAM etc/controlDict


Decomposing mesh

Create mesh

Calculating distribution of cells
Decomposition method simple [2] (region region0)
Selecting decompositionConstraint preservePatches
preservePatches : adding constraints to keep owner and (coupled) neighbour of faces in patches 1(interface) on same processor. This only makes sense for cyclics and cyclicAMI.

Finished decomposition in 0.01 s

Calculating original mesh data

Distributing cells to processors

Distributing faces to processors

Distributing points to processors

Constructing processor meshes
Overriding DebugSwitches according to controlDict
    overset         0;

    dynamicOversetFvMesh 0;

    cellVolumeWeight 0;

    level (unregistered)
    lduMatrix       2;

    libs (unregistered)
Overriding OptimisationSwitches according to controlDict
    fileHandler (unregistered)
    maxThreadFileBufferSize 1e+09;

    maxMasterFileBufferSize 1e+09;


Processor 0
    Number of cells = 2880
    Number of faces shared with processor 1 = 24
    Number of processor patches = 1
    Number of processor faces = 24
    Number of boundary faces = 6024
Overriding DebugSwitches according to controlDict
    overset         0;

    dynamicOversetFvMesh 0;

    cellVolumeWeight 0;

    level (unregistered)
    lduMatrix       2;

    libs (unregistered)
Overriding OptimisationSwitches according to controlDict
    fileHandler (unregistered)
    maxThreadFileBufferSize 1e+09;

    maxMasterFileBufferSize 1e+09;


Processor 1
    Number of cells = 2880
    Number of faces shared with processor 0 = 24
    Number of processor patches = 1
    Number of processor faces = 24
    Number of boundary faces = 6024

Number of processor faces = 24
Max number of cells = 2880 (0% above average 2880)
Max number of processor patches = 1 (0% above average 1)
Max number of faces between processors = 24 (0% above average 24)

Time = 0

Processor 0: field transfer
Overriding DebugSwitches according to controlDict
    overset         0;

    dynamicOversetFvMesh 0;

    cellVolumeWeight 0;

    level (unregistered)
    lduMatrix       2;

    libs (unregistered)
Overriding OptimisationSwitches according to controlDict
    fileHandler (unregistered)
    maxThreadFileBufferSize 1e+09;

    maxMasterFileBufferSize 1e+09;

Processor 1: field transfer
Overriding DebugSwitches according to controlDict
    overset         0;

    dynamicOversetFvMesh 0;

    cellVolumeWeight 0;

    level (unregistered)
    lduMatrix       2;

    libs (unregistered)
Overriding OptimisationSwitches according to controlDict
    fileHandler (unregistered)
    maxThreadFileBufferSize 1e+09;

    maxMasterFileBufferSize 1e+09;


End

