/*---------------------------------------------------------------------------*\
| =========                 |                                                 |
| \\      /  F ield         | OpenFOAM: The Open Source CFD Toolbox           |
|  \\    /   O peration     | Version:  2112                                  |
|   \\  /    A nd           | Website:  www.openfoam.com                      |
|    \\/     M anipulation  |                                                 |
\*---------------------------------------------------------------------------*/
Build  : _d44c8318-20220111 OPENFOAM=2112 version=2112
Arch   : "LSB;label=32;scalar=64"
Exec   : interFoam -parallel -case OpenFOAMCase
Date   : Aug 09 2024
Time   : 04:04:19
Host   : precicevm
PID    : 8503
I/O    : uncollated
Case   : /home/vagrant/Desktop/FOAMySeesExampleCases/FixedFixedBeam/RunCase/OpenFOAMCase
nProcs : 2
Hosts  :
(
    (precicevm 2)
)
Pstream initialized with:
    floatTransfer      : 0
    nProcsSimpleSum    : 0
    commsType          : nonBlocking
    polling iterations : 0
trapFpe: Floating point exception trapping enabled (FOAM_SIGFPE).
fileModificationChecking : Monitoring run-time modified files using timeStampMaster (fileModificationSkew 5, maxFileModificationPolls 20)
allowSystemOperations : Allowing user-supplied system call operations

// * * * * * * * * * * * * * * * * * * * * * * * * * * * * * * * * * * * * * //
Create time

Overriding DebugSwitches according to controlDict
    overset         0;

    dynamicOversetFvMesh 0;

    cellVolumeWeight 0;

    level (unregistered)
    lduMatrix       2;

    libs (unregistered)
Overriding OptimisationSwitches according to controlDict
    fileHandler (unregistered)
    maxThreadFileBufferSize 1e+09;

    maxMasterFileBufferSize 1e+09;

Overriding fileHandler to collated
I/O    : collated [threaded] (maxThreadFileBufferSize = 1e+09).
         Requires buffer large enough to collect all data or thread support
         enabled in MPI. If MPI thread support cannot be enabled, deactivate
         threading by setting maxThreadFileBufferSize to 0 in
         OpenFOAM etc/controlDict
Create mesh for time = 0

Selecting dynamicFvMesh dynamicMotionSolverFvMesh
Selecting motion solver: displacementLaplacian
Applying solid body motion to entire mesh
Selecting motion diffusion: uniform

PIMPLE: no residual control data found. Calculations will employ 5 corrector loops

Reading field p_rgh

Reading field U

Reading/calculating face flux field phi

Reading transportProperties

Selecting incompressible transport model Newtonian
Selecting incompressible transport model Newtonian
Selecting turbulence model type laminar
Selecting laminar stress model Stokes

Reading g

Reading hRef
Calculating field g.h

No MRF models present

Creating finite volume options from "constant/fvOptions"

Selecting finite volume options type buoyancyForce
    Source: buoyancy1
   Normalisation factor = 1e-20
DICPCG:  Solving for pcorr, Initial residual = 0, Final residual = 0, No Iterations 0
   Normalisation factor = 1e-20
DICPCG:  Solving for pcorr, Initial residual = 0, Final residual = 0, No Iterations 0
time step continuity errors : sum local = 0, global = 0, cumulative = 0
Constructing face velocity Uf

Courant Number mean: 0 max: 0

Starting time loop

---[preciceAdapter] Loaded the OpenFOAM-preCICE adapter - v1.1.0.
---[preciceAdapter] Reading preciceDict...
(0) 04:04:19 [impl::SolverInterfaceImpl]:168 in configure: [0mThis is preCICE version 2.3.0
(0) 04:04:19 [impl::SolverInterfaceImpl]:169 in configure: [0mRevision info: v2.3.0
(0) 04:04:19 [impl::SolverInterfaceImpl]:171 in configure: [0mConfiguration: Debug
(0) 04:04:19 [impl::SolverInterfaceImpl]:175 in configure: [0mConfiguring preCICE with configuration "./precice-config.xml"
(0) 04:04:19 [impl::SolverInterfaceImpl]:176 in configure: [0mI am participant "OpenFOAMCase"
(0) 04:04:19 [com::Communication]:28 in connectMasterSlaves: [0mConnecting Master to 1 Slaves
(0) 04:04:19 [impl::SolverInterfaceImpl]:249 in initialize: [0mSetting up master communication to coupling partner/s
(0) 04:04:20 [impl::SolverInterfaceImpl]:263 in initialize: [0mMasters are connected
(0) 04:04:20 [impl::SolverInterfaceImpl]:267 in initialize: [0mSetting up preliminary slaves communication to coupling partner/s
(0) 04:04:20 [partition::ReceivedPartition]:70 in communicate: [0mReceive global mesh Coupling-Data-Projection-Mesh
(0) 04:04:20 [partition::ProvidedPartition]:121 in prepare: [0mPrepare partition for mesh OpenFOAM-Mesh
(0) 04:04:20 [partition::ReceivedPartition]:343 in filterByBoundingBox: [0mBroadcast mesh Coupling-Data-Projection-Mesh
(0) 04:04:20 [partition::ReceivedPartition]:355 in filterByBoundingBox: [0mFilter mesh Coupling-Data-Projection-Mesh by bounding box on slaves
(0) 04:04:20 [mapping::NearestNeighborMapping]:77 in computeMapping: [0mMapping distance min:0 max:1.6665e-06 avg: 9.0852e-07 var: 6.59021e-13 cnt: 120
(0) 04:04:20 [mapping::NearestNeighborMapping]:77 in computeMapping: [0mMapping distance min:0 max:1.6665e-06 avg: 9.0852e-07 var: 6.59021e-13 cnt: 120
(0) 04:04:20 [partition::ReceivedPartition]:159 in compute: [0mFilter mesh Coupling-Data-Projection-Mesh by mappings
(0) 04:04:20 [partition::ReceivedPartition]:200 in compute: [0mFeedback distribution for mesh Coupling-Data-Projection-Mesh
(0) 04:04:20 [impl::SolverInterfaceImpl]:275 in initialize: [0mSetting up slaves communication to coupling partner/s
(0) 04:04:20 [impl::SolverInterfaceImpl]:281 in initialize: [0mSlaves are connected
(0) 04:04:20 [impl::SolverInterfaceImpl]:313 in initialize: [0miteration: 1 of 100, time-window: 1, time: 0 of 1, time-window-size: 0.0001, max-timestep-length: 0.0001, ongoing: yes, time-window-complete: no, write-iteration-checkpoint 
(0) 04:04:20 [impl::SolverInterfaceImpl]:1560 in computeMappings: [0mCompute "write" mapping from mesh "OpenFOAM-Mesh" to mesh "Coupling-Data-Projection-Mesh".
(0) 04:04:20 [mapping::NearestNeighborMapping]:77 in computeMapping: [0mMapping distance min:0 max:1.6665e-06 avg: 9.0852e-07 var: 6.59021e-13 cnt: 120
(0) 04:04:20 [cplscheme::BaseCouplingScheme]:162 in initializeData: [0minitializeData is skipped since no data has to be initialized.
---[preciceAdapter] preCICE was configured and initialized
--> FOAM Warning : 
    From void adapterInfo(std::string, std::string)
    in file Utilities.C at line 17
    [36mWarning in the preCICE adapter: [0m
You have enabled 'runTimeModifiable' in the controlDict. The preciceAdapter does not yet fully support this functionality when 'adjustableTimestep' is not enabled. If you modify the 'deltaT' in the controlDict during the simulation, it will not be updated.

--> FOAM Warning : 
    From void adapterInfo(std::string, std::string)
    in file Utilities.C at line 17
    [36mWarning in the preCICE adapter: [0m
The solver's timestep cannot be larger than the coupling timestep. Adjusting from 0.000500 to 0.000100

---[preciceAdapter] Setting the solver's endTime to infinity to prevent early exits. Only preCICE will control the simulation's endTime. Any functionObject's end() method will be triggered by the adapter. You may disable this behavior in the adapter's configuration.
    This keyword is 66 months old.

    This keyword is 66 months old.

--> FOAM IOWarning :
    Found [v1612] 'functionObjectLibs' entry instead of 'libs' in dictionary "system/controlDict.functions.freeSurface--> FOAM Warning : 
    From void Foam::timeControl::read(const Foam::dictionary&)
    in file db/functionObjects/timeControl/timeControl.C at line 131
    Reading "system/controlDict.functions.freeSurface" at line 78 to 114
    Found deprecated 'outputControl'
    Use 'writeControl' with 'writeInterval'
"

    This keyword is 60 months old.

--> FOAM IOWarning :
    Found [v1612] 'basePoint' entry instead of 'point' in dictionary "system/controlDict.functions.freeSurface.surfaces.pointAndNormalDict"

    This keyword is 60 months old.

--> FOAM IOWarning :
    Found [v1612] 'normalVector' entry instead of 'normal' in dictionary "system/controlDict.functions.freeSurface.surfaces.pointAndNormalDict"

    This keyword is 60 months old.

Sampled surface:
    freeSurface -> vtk
        isoSurface: freeSurface : isoMethod:cell regularise:none snap:1 field:alpha.water value:(0.5)
    yCut -> vtk
        sampledCuttingPlane: yCut : plane:(0 1 0) (0 0 0) offsets:(0)

Courant Number mean: 0 max: 0
Interface Courant Number mean: 0 max: 0
Time = 0.0001

PIMPLE: iteration 1
--> FOAM Warning : 
    From void Foam::lduMatrix::operator-=(const Foam::lduMatrix&)
    in file matrices/lduMatrix/lduMatrix/lduMatrixOperations.C at line 286
    Unknown matrix type combination
    this : diagonal:0 symmetric:1 asymmetric:0
    A    : diagonal:0 symmetric:0 asymmetric:0
   Normalisation factor = 1e-20
DICPCG:  Solving for cellDisplacementx, Initial residual = 0, Final residual = 0, No Iterations 0
   Normalisation factor = 1e-20
DICPCG:  Solving for cellDisplacementz, Initial residual = 0, Final residual = 0, No Iterations 0
   Normalisation factor = 15000
smoothSolver:  Solving for alpha.water, Initial residual = 0, Final residual = 0, No Iterations 1
Phase-1 volume fraction = 0.25  Min(alpha.water) = 0  Max(alpha.water) = 1
MULES: Correcting alpha.water
Phase-1 volume fraction = 0.25  Min(alpha.water) = 0  Max(alpha.water) = 1
--> FOAM Warning : 
    From void Foam::lduMatrix::operator-=(const Foam::lduMatrix&)
    in file matrices/lduMatrix/lduMatrix/lduMatrixOperations.C at line 286
    Unknown matrix type combination
    this : diagonal:0 symmetric:0 asymmetric:1
    A    : diagonal:0 symmetric:0 asymmetric:0
   Normalisation factor = 3.89048e-12
smoothSolver:  Solving for Ux, Initial residual = 1, Final residual = 5.71412e-09, No Iterations 1
   Normalisation factor = 9810
smoothSolver:  Solving for Uz, Initial residual = 1, Final residual = 2.39165e-09, No Iterations 1
   Normalisation factor = 171104
DICPCG:  Solving for p_rgh, Initial residual = 1, Final residual = 1.37323e-07, No Iterations 1
   Normalisation factor = 421641
DICPCG:  Solving for p_rgh, Initial residual = 5.57265e-08, Final residual = 7.41368e-10, No Iterations 29
time step continuity errors : sum local = 1.56296e-08, global = -1.07451e-08, cumulative = -1.07451e-08
   Normalisation factor = 771966
DICPCG:  Solving for p_rgh, Initial residual = 6.7269e-08, Final residual = 8.08523e-10, No Iterations 14
   Normalisation factor = 759133
DICPCG:  Solving for p_rgh, Initial residual = 8.22191e-10, Final residual = 8.22191e-10, No Iterations 0
time step continuity errors : sum local = 3.12076e-08, global = 1.7084e-10, cumulative = -1.05743e-08
   Normalisation factor = 759133
DICPCG:  Solving for p_rgh, Initial residual = 8.24049e-10, Final residual = 8.24049e-10, No Iterations 0
   Normalisation factor = 759133
DICPCG:  Solving for p_rgh, Initial residual = 8.24049e-10, Final residual = 8.24049e-10, No Iterations 0
time step continuity errors : sum local = 3.12781e-08, global = 1.70849e-10, cumulative = -1.04034e-08
PIMPLE: iteration 2
--> FOAM Warning : 
    From void Foam::lduMatrix::operator-=(const Foam::lduMatrix&)
    in file matrices/lduMatrix/lduMatrix/lduMatrixOperations.C at line 286
    Unknown matrix type combination
    this : diagonal:0 symmetric:1 asymmetric:0
    A    : diagonal:0 symmetric:0 asymmetric:0
   Normalisation factor = 1e-20
DICPCG:  Solving for cellDisplacementx, Initial residual = 0, Final residual = 0, No Iterations 0
   Normalisation factor = 1e-20
DICPCG:  Solving for cellDisplacementz, Initial residual = 0, Final residual = 0, No Iterations 0
   Normalisation factor = 15000
smoothSolver:  Solving for alpha.water, Initial residual = 3.51078e-09, Final residual = 6.70285e-17, No Iterations 1
Phase-1 volume fraction = 0.25  Min(alpha.water) = 0  Max(alpha.water) = 1
MULES: Correcting alpha.water
Phase-1 volume fraction = 0.25  Min(alpha.water) = 0  Max(alpha.water) = 1
--> FOAM Warning : 
    From void Foam::lduMatrix::operator-=(const Foam::lduMatrix&)
    in file matrices/lduMatrix/lduMatrix/lduMatrixOperations.C at line 286
    Unknown matrix type combination
    this : diagonal:0 symmetric:0 asymmetric:1
    A    : diagonal:0 symmetric:0 asymmetric:0
   Normalisation factor = 1.14973
smoothSolver:  Solving for Ux, Initial residual = 0.0948769, Final residual = 6.94048e-11, No Iterations 1
   Normalisation factor = 1133.68
smoothSolver:  Solving for Uz, Initial residual = 0.180403, Final residual = 4.32927e-11, No Iterations 1
   Normalisation factor = 537831
DICPCG:  Solving for p_rgh, Initial residual = 3.15889e-08, Final residual = 8.77251e-10, No Iterations 11
   Normalisation factor = 542940
DICPCG:  Solving for p_rgh, Initial residual = 8.68997e-10, Final residual = 8.68997e-10, No Iterations 0
time step continuity errors : sum local = 2.35907e-08, global = -1.17905e-09, cumulative = -1.15825e-08
   Normalisation factor = 542940
DICPCG:  Solving for p_rgh, Initial residual = 8.87609e-10, Final residual = 8.87609e-10, No Iterations 0
   Normalisation factor = 542940
DICPCG:  Solving for p_rgh, Initial residual = 8.87609e-10, Final residual = 8.87609e-10, No Iterations 0
time step continuity errors : sum local = 2.40959e-08, global = -1.17905e-09, cumulative = -1.27615e-08
   Normalisation factor = 542940
DICPCG:  Solving for p_rgh, Initial residual = 8.87609e-10, Final residual = 8.87609e-10, No Iterations 0
   Normalisation factor = 542940
DICPCG:  Solving for p_rgh, Initial residual = 8.87609e-10, Final residual = 8.87609e-10, No Iterations 0
time step continuity errors : sum local = 2.40959e-08, global = -1.17905e-09, cumulative = -1.39406e-08
PIMPLE: iteration 3
--> FOAM Warning : 
    From void Foam::lduMatrix::operator-=(const Foam::lduMatrix&)
    in file matrices/lduMatrix/lduMatrix/lduMatrixOperations.C at line 286
    Unknown matrix type combination
    this : diagonal:0 symmetric:1 asymmetric:0
    A    : diagonal:0 symmetric:0 asymmetric:0
   Normalisation factor = 1e-20
DICPCG:  Solving for cellDisplacementx, Initial residual = 0, Final residual = 0, No Iterations 0
   Normalisation factor = 1e-20
DICPCG:  Solving for cellDisplacementz, Initial residual = 0, Final residual = 0, No Iterations 0
   Normalisation factor = 15000
smoothSolver:  Solving for alpha.water, Initial residual = 2.83785e-09, Final residual = 1.81952e-17, No Iterations 1
Phase-1 volume fraction = 0.25  Min(alpha.water) = 0  Max(alpha.water) = 1
MULES: Correcting alpha.water
Phase-1 volume fraction = 0.25  Min(alpha.water) = 0  Max(alpha.water) = 1
--> FOAM Warning : 
    From void Foam::lduMatrix::operator-=(const Foam::lduMatrix&)
    in file matrices/lduMatrix/lduMatrix/lduMatrixOperations.C at line 286
    Unknown matrix type combination
    this : diagonal:0 symmetric:0 asymmetric:1
    A    : diagonal:0 symmetric:0 asymmetric:0
   Normalisation factor = 1.53965
smoothSolver:  Solving for Ux, Initial residual = 0.124639, Final residual = 9.7367e-11, No Iterations 1
   Normalisation factor = 1405.74
smoothSolver:  Solving for Uz, Initial residual = 0.0728909, Final residual = 1.75332e-11, No Iterations 1
   Normalisation factor = 673764
DICPCG:  Solving for p_rgh, Initial residual = 2.7468e-08, Final residual = 8.41827e-10, No Iterations 8
   Normalisation factor = 674532
DICPCG:  Solving for p_rgh, Initial residual = 8.40869e-10, Final residual = 8.40869e-10, No Iterations 0
time step continuity errors : sum local = 2.83597e-08, global = -8.51438e-10, cumulative = -1.4792e-08
   Normalisation factor = 674532
DICPCG:  Solving for p_rgh, Initial residual = 8.41027e-10, Final residual = 8.41027e-10, No Iterations 0
   Normalisation factor = 674532
DICPCG:  Solving for p_rgh, Initial residual = 8.41027e-10, Final residual = 8.41027e-10, No Iterations 0
time step continuity errors : sum local = 2.8365e-08, global = -8.51437e-10, cumulative = -1.56435e-08
   Normalisation factor = 674532
DICPCG:  Solving for p_rgh, Initial residual = 8.41027e-10, Final residual = 8.41027e-10, No Iterations 0
   Normalisation factor = 674532
DICPCG:  Solving for p_rgh, Initial residual = 8.41027e-10, Final residual = 8.41027e-10, No Iterations 0
time step continuity errors : sum local = 2.8365e-08, global = -8.51437e-10, cumulative = -1.64949e-08
PIMPLE: iteration 4
--> FOAM Warning : 
    From void Foam::lduMatrix::operator-=(const Foam::lduMatrix&)
    in file matrices/lduMatrix/lduMatrix/lduMatrixOperations.C at line 286
    Unknown matrix type combination
    this : diagonal:0 symmetric:1 asymmetric:0
    A    : diagonal:0 symmetric:0 asymmetric:0
   Normalisation factor = 1e-20
DICPCG:  Solving for cellDisplacementx, Initial residual = 0, Final residual = 0, No Iterations 0
   Normalisation factor = 1e-20
DICPCG:  Solving for cellDisplacementz, Initial residual = 0, Final residual = 0, No Iterations 0
   Normalisation factor = 15000
smoothSolver:  Solving for alpha.water, Initial residual = 6.89964e-10, Final residual = 1.55385e-17, No Iterations 1
Phase-1 volume fraction = 0.25  Min(alpha.water) = 0  Max(alpha.water) = 1
MULES: Correcting alpha.water
Phase-1 volume fraction = 0.25  Min(alpha.water) = -3.48661e-47  Max(alpha.water) = 1
--> FOAM Warning : 
    From void Foam::lduMatrix::operator-=(const Foam::lduMatrix&)
    in file matrices/lduMatrix/lduMatrix/lduMatrixOperations.C at line 286
    Unknown matrix type combination
    this : diagonal:0 symmetric:0 asymmetric:1
    A    : diagonal:0 symmetric:0 asymmetric:0
   Normalisation factor = 1.03304
smoothSolver:  Solving for Ux, Initial residual = 0.226176, Final residual = 1.61063e-10, No Iterations 1
   Normalisation factor = 1554.97
smoothSolver:  Solving for Uz, Initial residual = 0.0329246, Final residual = 7.91705e-12, No Iterations 1
   Normalisation factor = 761806
DICPCG:  Solving for p_rgh, Initial residual = 7.53831e-09, Final residual = 8.89775e-10, No Iterations 2
   Normalisation factor = 761872
DICPCG:  Solving for p_rgh, Initial residual = 8.89698e-10, Final residual = 8.89698e-10, No Iterations 0
time step continuity errors : sum local = 3.38918e-08, global = -3.36126e-10, cumulative = -1.6831e-08
   Normalisation factor = 761872
DICPCG:  Solving for p_rgh, Initial residual = 8.90264e-10, Final residual = 8.90264e-10, No Iterations 0
   Normalisation factor = 761872
DICPCG:  Solving for p_rgh, Initial residual = 8.90264e-10, Final residual = 8.90264e-10, No Iterations 0
time step continuity errors : sum local = 3.39134e-08, global = -3.36126e-10, cumulative = -1.71672e-08
   Normalisation factor = 761872
DICPCG:  Solving for p_rgh, Initial residual = 8.90264e-10, Final residual = 8.90264e-10, No Iterations 0
   Normalisation factor = 761872
DICPCG:  Solving for p_rgh, Initial residual = 8.90264e-10, Final residual = 8.90264e-10, No Iterations 0
time step continuity errors : sum local = 3.39134e-08, global = -3.36126e-10, cumulative = -1.75033e-08
PIMPLE: iteration 5
--> FOAM Warning : 
    From void Foam::lduMatrix::operator-=(const Foam::lduMatrix&)
    in file matrices/lduMatrix/lduMatrix/lduMatrixOperations.C at line 286
    Unknown matrix type combination
    this : diagonal:0 symmetric:1 asymmetric:0
    A    : diagonal:0 symmetric:0 asymmetric:0
   Normalisation factor = 1e-20
DICPCG:  Solving for cellDisplacementx, Initial residual = 0, Final residual = 0, No Iterations 0
   Normalisation factor = 1e-20
DICPCG:  Solving for cellDisplacementz, Initial residual = 0, Final residual = 0, No Iterations 0
   Normalisation factor = 15000
smoothSolver:  Solving for alpha.water, Initial residual = 8.87387e-09, Final residual = 3.17228e-17, No Iterations 1
Phase-1 volume fraction = 0.25  Min(alpha.water) = 0  Max(alpha.water) = 1
MULES: Correcting alpha.water
Phase-1 volume fraction = 0.25  Min(alpha.water) = -1.07952e-82  Max(alpha.water) = 1
--> FOAM Warning : 
    From void Foam::lduMatrix::operator-=(const Foam::lduMatrix&)
    in file matrices/lduMatrix/lduMatrix/lduMatrixOperations.C at line 286
    Unknown matrix type combination
    this : diagonal:0 symmetric:0 asymmetric:1
    A    : diagonal:0 symmetric:0 asymmetric:0
   Normalisation factor = 2.08324
smoothSolver:  Solving for Ux, Initial residual = 0.0422735, Final residual = 1.07993e-10, No Iterations 1
   Normalisation factor = 1899.58
smoothSolver:  Solving for Uz, Initial residual = 0.0134628, Final residual = 3.23873e-12, No Iterations 1
   Normalisation factor = 483985
DICPCG:  Solving for p_rgh, Initial residual = 7.16555e-08, Final residual = 7.4278e-10, No Iterations 11
   Normalisation factor = 484224
DICPCG:  Solving for p_rgh, Initial residual = 7.42413e-10, Final residual = 7.42413e-10, No Iterations 0
time step continuity errors : sum local = 1.79747e-08, global = -1.34339e-09, cumulative = -1.88467e-08
   Normalisation factor = 484224
DICPCG:  Solving for p_rgh, Initial residual = 7.43543e-10, Final residual = 7.43543e-10, No Iterations 0
   Normalisation factor = 484224
DICPCG:  Solving for p_rgh, Initial residual = 7.43543e-10, Final residual = 7.43543e-10, No Iterations 0
time step continuity errors : sum local = 1.80021e-08, global = -1.34339e-09, cumulative = -2.01901e-08
   Normalisation factor = 484224
DICPCG:  Solving for p_rgh, Initial residual = 7.43543e-10, Final residual = 7.43543e-10, No Iterations 0
   Normalisation factor = 484224
DICPCG:  Solving for p_rgh, Initial residual = 7.43543e-10, Final residual = 7.43543e-10, No Iterations 0
time step continuity errors : sum local = 1.80021e-08, global = -1.34339e-09, cumulative = -2.15335e-08
ExecutionTime = 0.3 s  ClockTime = 1 s

(0) 04:04:20 [impl::SolverInterfaceImpl]:1560 in computeMappings: [0mCompute "read" mapping from mesh "Coupling-Data-Projection-Mesh" to mesh "OpenFOAM-Mesh".
(0) 04:04:20 [mapping::NearestNeighborMapping]:77 in computeMapping: [0mMapping distance min:0 max:1.6665e-06 avg: 9.0852e-07 var: 6.59021e-13 cnt: 120
(0) 04:04:20 [impl::SolverInterfaceImpl]:435 in advance: [0miteration: 2 of 100, time-window: 1, time: 0 of 1, time-window-size: 0.0001, max-timestep-length: 0.0001, ongoing: yes, time-window-complete: no, read-iteration-checkpoint 
--> FOAM Warning : 
    From void adapterInfo(std::string, std::string)
    in file Utilities.C at line 17
    [36mWarning in the preCICE adapter: [0m
The solver's timestep cannot be larger than the coupling timestep. Adjusting from 0.000500 to 0.000100

Courant Number mean: 0 max: 0
Interface Courant Number mean: 0 max: 0
Time = 0.0001

PIMPLE: iteration 1
--> FOAM Warning : 
    From void Foam::lduMatrix::operator-=(const Foam::lduMatrix&)
    in file matrices/lduMatrix/lduMatrix/lduMatrixOperations.C at line 286
    Unknown matrix type combination
    this : diagonal:0 symmetric:1 asymmetric:0
    A    : diagonal:0 symmetric:0 asymmetric:0
   Normalisation factor = 1e-20
DICPCG:  Solving for cellDisplacementx, Initial residual = 0, Final residual = 0, No Iterations 0
   Normalisation factor = 1e-20
DICPCG:  Solving for cellDisplacementz, Initial residual = 0, Final residual = 0, No Iterations 0
   Normalisation factor = 15000
smoothSolver:  Solving for alpha.water, Initial residual = 0, Final residual = 0, No Iterations 1
Phase-1 volume fraction = 0.25  Min(alpha.water) = 0  Max(alpha.water) = 1
MULES: Correcting alpha.water
Phase-1 volume fraction = 0.25  Min(alpha.water) = 0  Max(alpha.water) = 1
--> FOAM Warning : 
    From void Foam::lduMatrix::operator-=(const Foam::lduMatrix&)
    in file matrices/lduMatrix/lduMatrix/lduMatrixOperations.C at line 286
    Unknown matrix type combination
    this : diagonal:0 symmetric:0 asymmetric:1
    A    : diagonal:0 symmetric:0 asymmetric:0
   Normalisation factor = 3.89048e-12
smoothSolver:  Solving for Ux, Initial residual = 1, Final residual = 5.71412e-09, No Iterations 1
   Normalisation factor = 9401.25
smoothSolver:  Solving for Uz, Initial residual = 1, Final residual = 2.4852e-09, No Iterations 1
   Normalisation factor = 171104
DICPCG:  Solving for p_rgh, Initial residual = 1, Final residual = 1.37323e-07, No Iterations 1
   Normalisation factor = 421641
DICPCG:  Solving for p_rgh, Initial residual = 5.57265e-08, Final residual = 7.41368e-10, No Iterations 29
time step continuity errors : sum local = 1.56296e-08, global = -1.07451e-08, cumulative = -3.22786e-08
   Normalisation factor = 771966
DICPCG:  Solving for p_rgh, Initial residual = 6.7269e-08, Final residual = 8.08521e-10, No Iterations 14
   Normalisation factor = 759133
DICPCG:  Solving for p_rgh, Initial residual = 8.22189e-10, Final residual = 8.22189e-10, No Iterations 0
time step continuity errors : sum local = 3.12075e-08, global = 1.70842e-10, cumulative = -3.21077e-08
   Normalisation factor = 759133
DICPCG:  Solving for p_rgh, Initial residual = 8.24047e-10, Final residual = 8.24047e-10, No Iterations 0
   Normalisation factor = 759133
DICPCG:  Solving for p_rgh, Initial residual = 8.24047e-10, Final residual = 8.24047e-10, No Iterations 0
time step continuity errors : sum local = 3.12781e-08, global = 1.70851e-10, cumulative = -3.19369e-08
PIMPLE: iteration 2
--> FOAM Warning : 
    From void Foam::lduMatrix::operator-=(const Foam::lduMatrix&)
    in file matrices/lduMatrix/lduMatrix/lduMatrixOperations.C at line 286
    Unknown matrix type combination
    this : diagonal:0 symmetric:1 asymmetric:0
    A    : diagonal:0 symmetric:0 asymmetric:0
   Normalisation factor = 1e-20
DICPCG:  Solving for cellDisplacementx, Initial residual = 0, Final residual = 0, No Iterations 0
   Normalisation factor = 1e-20
DICPCG:  Solving for cellDisplacementz, Initial residual = 0, Final residual = 0, No Iterations 0
   Normalisation factor = 15000
smoothSolver:  Solving for alpha.water, Initial residual = 3.51078e-09, Final residual = 6.70484e-17, No Iterations 1
Phase-1 volume fraction = 0.25  Min(alpha.water) = 0  Max(alpha.water) = 1
MULES: Correcting alpha.water
Phase-1 volume fraction = 0.25  Min(alpha.water) = -4.17619e-57  Max(alpha.water) = 1
--> FOAM Warning : 
    From void Foam::lduMatrix::operator-=(const Foam::lduMatrix&)
    in file matrices/lduMatrix/lduMatrix/lduMatrixOperations.C at line 286
    Unknown matrix type combination
    this : diagonal:0 symmetric:0 asymmetric:1
    A    : diagonal:0 symmetric:0 asymmetric:0
   Normalisation factor = 1.14974
smoothSolver:  Solving for Ux, Initial residual = 0.0948768, Final residual = 6.94049e-11, No Iterations 1
   Normalisation factor = 1133.68
smoothSolver:  Solving for Uz, Initial residual = 0.180403, Final residual = 4.32927e-11, No Iterations 1
   Normalisation factor = 537831
DICPCG:  Solving for p_rgh, Initial residual = 3.15889e-08, Final residual = 8.77251e-10, No Iterations 11
   Normalisation factor = 542940
DICPCG:  Solving for p_rgh, Initial residual = 8.68997e-10, Final residual = 8.68997e-10, No Iterations 0
time step continuity errors : sum local = 2.35907e-08, global = -1.17905e-09, cumulative = -3.31159e-08
   Normalisation factor = 542940
DICPCG:  Solving for p_rgh, Initial residual = 8.8761e-10, Final residual = 8.8761e-10, No Iterations 0
   Normalisation factor = 542940
DICPCG:  Solving for p_rgh, Initial residual = 8.8761e-10, Final residual = 8.8761e-10, No Iterations 0
time step continuity errors : sum local = 2.40959e-08, global = -1.17905e-09, cumulative = -3.4295e-08
   Normalisation factor = 542940
DICPCG:  Solving for p_rgh, Initial residual = 8.8761e-10, Final residual = 8.8761e-10, No Iterations 0
   Normalisation factor = 542940
DICPCG:  Solving for p_rgh, Initial residual = 8.8761e-10, Final residual = 8.8761e-10, No Iterations 0
time step continuity errors : sum local = 2.40959e-08, global = -1.17905e-09, cumulative = -3.5474e-08
PIMPLE: iteration 3
--> FOAM Warning : 
    From void Foam::lduMatrix::operator-=(const Foam::lduMatrix&)
    in file matrices/lduMatrix/lduMatrix/lduMatrixOperations.C at line 286
    Unknown matrix type combination
    this : diagonal:0 symmetric:1 asymmetric:0
    A    : diagonal:0 symmetric:0 asymmetric:0
   Normalisation factor = 1e-20
DICPCG:  Solving for cellDisplacementx, Initial residual = 0, Final residual = 0, No Iterations 0
   Normalisation factor = 1e-20
DICPCG:  Solving for cellDisplacementz, Initial residual = 0, Final residual = 0, No Iterations 0
   Normalisation factor = 15000
smoothSolver:  Solving for alpha.water, Initial residual = 2.83785e-09, Final residual = 1.83938e-17, No Iterations 1
Phase-1 volume fraction = 0.25  Min(alpha.water) = -5.30112e-72  Max(alpha.water) = 1
MULES: Correcting alpha.water
Phase-1 volume fraction = 0.25  Min(alpha.water) = -5.30111e-72  Max(alpha.water) = 1
--> FOAM Warning : 
    From void Foam::lduMatrix::operator-=(const Foam::lduMatrix&)
    in file matrices/lduMatrix/lduMatrix/lduMatrixOperations.C at line 286
    Unknown matrix type combination
    this : diagonal:0 symmetric:0 asymmetric:1
    A    : diagonal:0 symmetric:0 asymmetric:0
   Normalisation factor = 1.53966
smoothSolver:  Solving for Ux, Initial residual = 0.124639, Final residual = 9.73666e-11, No Iterations 1
   Normalisation factor = 1405.74
smoothSolver:  Solving for Uz, Initial residual = 0.0728909, Final residual = 1.75332e-11, No Iterations 1
   Normalisation factor = 673764
DICPCG:  Solving for p_rgh, Initial residual = 2.7468e-08, Final residual = 8.41828e-10, No Iterations 8
   Normalisation factor = 674532
DICPCG:  Solving for p_rgh, Initial residual = 8.4087e-10, Final residual = 8.4087e-10, No Iterations 0
time step continuity errors : sum local = 2.83597e-08, global = -8.51439e-10, cumulative = -3.63255e-08
   Normalisation factor = 674532
DICPCG:  Solving for p_rgh, Initial residual = 8.41027e-10, Final residual = 8.41027e-10, No Iterations 0
   Normalisation factor = 674532
DICPCG:  Solving for p_rgh, Initial residual = 8.41027e-10, Final residual = 8.41027e-10, No Iterations 0
time step continuity errors : sum local = 2.8365e-08, global = -8.51438e-10, cumulative = -3.71769e-08
   Normalisation factor = 674532
DICPCG:  Solving for p_rgh, Initial residual = 8.41027e-10, Final residual = 8.41027e-10, No Iterations 0
   Normalisation factor = 674532
DICPCG:  Solving for p_rgh, Initial residual = 8.41027e-10, Final residual = 8.41027e-10, No Iterations 0
time step continuity errors : sum local = 2.8365e-08, global = -8.51438e-10, cumulative = -3.80284e-08
PIMPLE: iteration 4
--> FOAM Warning : 
    From void Foam::lduMatrix::operator-=(const Foam::lduMatrix&)
    in file matrices/lduMatrix/lduMatrix/lduMatrixOperations.C at line 286
    Unknown matrix type combination
    this : diagonal:0 symmetric:1 asymmetric:0
    A    : diagonal:0 symmetric:0 asymmetric:0
   Normalisation factor = 1e-20
DICPCG:  Solving for cellDisplacementx, Initial residual = 0, Final residual = 0, No Iterations 0
   Normalisation factor = 1e-20
DICPCG:  Solving for cellDisplacementz, Initial residual = 0, Final residual = 0, No Iterations 0
   Normalisation factor = 15000
smoothSolver:  Solving for alpha.water, Initial residual = 6.89965e-10, Final residual = 1.51558e-17, No Iterations 1
Phase-1 volume fraction = 0.25  Min(alpha.water) = 0  Max(alpha.water) = 1
MULES: Correcting alpha.water
Phase-1 volume fraction = 0.25  Min(alpha.water) = -2.43087e-67  Max(alpha.water) = 1
--> FOAM Warning : 
    From void Foam::lduMatrix::operator-=(const Foam::lduMatrix&)
    in file matrices/lduMatrix/lduMatrix/lduMatrixOperations.C at line 286
    Unknown matrix type combination
    this : diagonal:0 symmetric:0 asymmetric:1
    A    : diagonal:0 symmetric:0 asymmetric:0
   Normalisation factor = 1.03304
smoothSolver:  Solving for Ux, Initial residual = 0.226175, Final residual = 1.61062e-10, No Iterations 1
   Normalisation factor = 1554.97
smoothSolver:  Solving for Uz, Initial residual = 0.0329246, Final residual = 7.91705e-12, No Iterations 1
   Normalisation factor = 761806
DICPCG:  Solving for p_rgh, Initial residual = 7.53831e-09, Final residual = 8.89776e-10, No Iterations 2
   Normalisation factor = 761872
DICPCG:  Solving for p_rgh, Initial residual = 8.89698e-10, Final residual = 8.89698e-10, No Iterations 0
time step continuity errors : sum local = 3.38918e-08, global = -3.36126e-10, cumulative = -3.83645e-08
   Normalisation factor = 761872
DICPCG:  Solving for p_rgh, Initial residual = 8.90264e-10, Final residual = 8.90264e-10, No Iterations 0
   Normalisation factor = 761872
DICPCG:  Solving for p_rgh, Initial residual = 8.90264e-10, Final residual = 8.90264e-10, No Iterations 0
time step continuity errors : sum local = 3.39134e-08, global = -3.36126e-10, cumulative = -3.87006e-08
   Normalisation factor = 761872
DICPCG:  Solving for p_rgh, Initial residual = 8.90264e-10, Final residual = 8.90264e-10, No Iterations 0
   Normalisation factor = 761872
DICPCG:  Solving for p_rgh, Initial residual = 8.90264e-10, Final residual = 8.90264e-10, No Iterations 0
time step continuity errors : sum local = 3.39134e-08, global = -3.36126e-10, cumulative = -3.90367e-08
PIMPLE: iteration 5
--> FOAM Warning : 
    From void Foam::lduMatrix::operator-=(const Foam::lduMatrix&)
    in file matrices/lduMatrix/lduMatrix/lduMatrixOperations.C at line 286
    Unknown matrix type combination
    this : diagonal:0 symmetric:1 asymmetric:0
    A    : diagonal:0 symmetric:0 asymmetric:0
   Normalisation factor = 1e-20
DICPCG:  Solving for cellDisplacementx, Initial residual = 0, Final residual = 0, No Iterations 0
   Normalisation factor = 1e-20
DICPCG:  Solving for cellDisplacementz, Initial residual = 0, Final residual = 0, No Iterations 0
   Normalisation factor = 15000
smoothSolver:  Solving for alpha.water, Initial residual = 8.87388e-09, Final residual = 3.14345e-17, No Iterations 1
Phase-1 volume fraction = 0.25  Min(alpha.water) = 0  Max(alpha.water) = 1
MULES: Correcting alpha.water
Phase-1 volume fraction = 0.25  Min(alpha.water) = -6.52009e-73  Max(alpha.water) = 1
--> FOAM Warning : 
    From void Foam::lduMatrix::operator-=(const Foam::lduMatrix&)
    in file matrices/lduMatrix/lduMatrix/lduMatrixOperations.C at line 286
    Unknown matrix type combination
    this : diagonal:0 symmetric:0 asymmetric:1
    A    : diagonal:0 symmetric:0 asymmetric:0
   Normalisation factor = 2.08326
smoothSolver:  Solving for Ux, Initial residual = 0.0422732, Final residual = 1.07993e-10, No Iterations 1
   Normalisation factor = 1899.58
smoothSolver:  Solving for Uz, Initial residual = 0.0134628, Final residual = 3.23873e-12, No Iterations 1
   Normalisation factor = 483985
DICPCG:  Solving for p_rgh, Initial residual = 7.16555e-08, Final residual = 7.4278e-10, No Iterations 11
   Normalisation factor = 484224
DICPCG:  Solving for p_rgh, Initial residual = 7.42413e-10, Final residual = 7.42413e-10, No Iterations 0
time step continuity errors : sum local = 1.79747e-08, global = -1.34339e-09, cumulative = -4.03801e-08
   Normalisation factor = 484224
DICPCG:  Solving for p_rgh, Initial residual = 7.43544e-10, Final residual = 7.43544e-10, No Iterations 0
   Normalisation factor = 484224
DICPCG:  Solving for p_rgh, Initial residual = 7.43544e-10, Final residual = 7.43544e-10, No Iterations 0
time step continuity errors : sum local = 1.80021e-08, global = -1.3434e-09, cumulative = -4.17235e-08
   Normalisation factor = 484224
DICPCG:  Solving for p_rgh, Initial residual = 7.43544e-10, Final residual = 7.43544e-10, No Iterations 0
   Normalisation factor = 484224
DICPCG:  Solving for p_rgh, Initial residual = 7.43544e-10, Final residual = 7.43544e-10, No Iterations 0
time step continuity errors : sum local = 1.80021e-08, global = -1.3434e-09, cumulative = -4.30669e-08
ExecutionTime = 0.47 s  ClockTime = 1 s

(0) 04:04:24 [impl::SolverInterfaceImpl]:435 in advance: [0miteration: 3 of 100, time-window: 1, time: 0 of 1, time-window-size: 0.0001, max-timestep-length: 0.0001, ongoing: yes, time-window-complete: no, read-iteration-checkpoint 
--> FOAM Warning : 
    From void adapterInfo(std::string, std::string)
    in file Utilities.C at line 17
    [36mWarning in the preCICE adapter: [0m
The solver's timestep cannot be larger than the coupling timestep. Adjusting from 0.000500 to 0.000100

Courant Number mean: 0 max: 0
Interface Courant Number mean: 0 max: 0
Time = 0.0001

PIMPLE: iteration 1
--> FOAM Warning : 
    From void Foam::lduMatrix::operator-=(const Foam::lduMatrix&)
    in file matrices/lduMatrix/lduMatrix/lduMatrixOperations.C at line 286
    Unknown matrix type combination
    this : diagonal:0 symmetric:1 asymmetric:0
    A    : diagonal:0 symmetric:0 asymmetric:0
   Normalisation factor = 1.00655e-20
DICPCG:  Solving for cellDisplacementx, Initial residual = 0.00650695, Final residual = 7.17082e-07, No Iterations 55
   Normalisation factor = 1.66886e-06
DICPCG:  Solving for cellDisplacementz, Initial residual = 1, Final residual = 9.84089e-07, No Iterations 54
   Normalisation factor = 15000
smoothSolver:  Solving for alpha.water, Initial residual = 1.23928e-08, Final residual = 2.9902e-18, No Iterations 1
Phase-1 volume fraction = 0.25  Min(alpha.water) = 0  Max(alpha.water) = 1
MULES: Correcting alpha.water
Phase-1 volume fraction = 0.25  Min(alpha.water) = 0  Max(alpha.water) = 1
--> FOAM Warning : 
    From void Foam::lduMatrix::operator-=(const Foam::lduMatrix&)
    in file matrices/lduMatrix/lduMatrix/lduMatrixOperations.C at line 286
    Unknown matrix type combination
    this : diagonal:0 symmetric:0 asymmetric:1
    A    : diagonal:0 symmetric:0 asymmetric:0
   Normalisation factor = 0.000110106
smoothSolver:  Solving for Ux, Initial residual = 1, Final residual = 3.01719e-09, No Iterations 1
   Normalisation factor = 9401.25
smoothSolver:  Solving for Uz, Initial residual = 1, Final residual = 2.4852e-09, No Iterations 1
   Normalisation factor = 171104
DICPCG:  Solving for p_rgh, Initial residual = 1, Final residual = 1.35926e-07, No Iterations 1
   Normalisation factor = 405923
DICPCG:  Solving for p_rgh, Initial residual = 5.73347e-08, Final residual = 9.48204e-10, No Iterations 15
time step continuity errors : sum local = 1.92449e-08, global = -5.92581e-09, cumulative = -4.89927e-08
   Normalisation factor = 598122
DICPCG:  Solving for p_rgh, Initial residual = 8.68709e-08, Final residual = 6.20793e-10, No Iterations 15
   Normalisation factor = 585294
DICPCG:  Solving for p_rgh, Initial residual = 6.34399e-10, Final residual = 6.34399e-10, No Iterations 0
time step continuity errors : sum local = 1.85655e-08, global = 1.61592e-09, cumulative = -4.73768e-08
   Normalisation factor = 585294
DICPCG:  Solving for p_rgh, Initial residual = 7.02434e-10, Final residual = 7.02434e-10, No Iterations 0
   Normalisation factor = 585294
DICPCG:  Solving for p_rgh, Initial residual = 7.02434e-10, Final residual = 7.02434e-10, No Iterations 0
time step continuity errors : sum local = 2.05565e-08, global = 1.61592e-09, cumulative = -4.57609e-08
PIMPLE: iteration 2
--> FOAM Warning : 
    From void Foam::lduMatrix::operator-=(const Foam::lduMatrix&)
    in file matrices/lduMatrix/lduMatrix/lduMatrixOperations.C at line 286
    Unknown matrix type combination
    this : diagonal:0 symmetric:1 asymmetric:0
    A    : diagonal:0 symmetric:0 asymmetric:0
   Normalisation factor = 1.01366e-20
DICPCG:  Solving for cellDisplacementx, Initial residual = 7.12053e-07, Final residual = 7.12053e-07, No Iterations 0
   Normalisation factor = 5.27972e-06
DICPCG:  Solving for cellDisplacementz, Initial residual = 3.11037e-07, Final residual = 3.11037e-07, No Iterations 0
   Normalisation factor = 15000
smoothSolver:  Solving for alpha.water, Initial residual = 2.06387e-08, Final residual = 2.07927e-17, No Iterations 1
Phase-1 volume fraction = 0.25  Min(alpha.water) = 0  Max(alpha.water) = 1
MULES: Correcting alpha.water
Phase-1 volume fraction = 0.25  Min(alpha.water) = -1.43493e-46  Max(alpha.water) = 1
--> FOAM Warning : 
    From void Foam::lduMatrix::operator-=(const Foam::lduMatrix&)
    in file matrices/lduMatrix/lduMatrix/lduMatrixOperations.C at line 286
    Unknown matrix type combination
    this : diagonal:0 symmetric:0 asymmetric:1
    A    : diagonal:0 symmetric:0 asymmetric:0
   Normalisation factor = 1308.47
smoothSolver:  Solving for Ux, Initial residual = 0.199859, Final residual = 8.02256e-13, No Iterations 1
   Normalisation factor = 9715.62
smoothSolver:  Solving for Uz, Initial residual = 0.34907, Final residual = 1.51297e-10, No Iterations 1
   Normalisation factor = 568406
DICPCG:  Solving for p_rgh, Initial residual = 5.75459e-08, Final residual = 8.38065e-10, No Iterations 10
   Normalisation factor = 653360
DICPCG:  Solving for p_rgh, Initial residual = 7.29094e-10, Final residual = 7.29094e-10, No Iterations 0
time step continuity errors : sum local = 2.38181e-08, global = -1.39252e-08, cumulative = -5.96861e-08
   Normalisation factor = 653360
DICPCG:  Solving for p_rgh, Initial residual = 7.79427e-10, Final residual = 7.79427e-10, No Iterations 0
   Normalisation factor = 653360
DICPCG:  Solving for p_rgh, Initial residual = 7.79427e-10, Final residual = 7.79427e-10, No Iterations 0
time step continuity errors : sum local = 2.54623e-08, global = -1.39252e-08, cumulative = -7.36113e-08
   Normalisation factor = 653360
DICPCG:  Solving for p_rgh, Initial residual = 7.79427e-10, Final residual = 7.79427e-10, No Iterations 0
   Normalisation factor = 653360
DICPCG:  Solving for p_rgh, Initial residual = 7.79427e-10, Final residual = 7.79427e-10, No Iterations 0
time step continuity errors : sum local = 2.54623e-08, global = -1.39252e-08, cumulative = -8.75365e-08
PIMPLE: iteration 3
--> FOAM Warning : 
    From void Foam::lduMatrix::operator-=(const Foam::lduMatrix&)
    in file matrices/lduMatrix/lduMatrix/lduMatrixOperations.C at line 286
    Unknown matrix type combination
    this : diagonal:0 symmetric:1 asymmetric:0
    A    : diagonal:0 symmetric:0 asymmetric:0
   Normalisation factor = 1.01366e-20
DICPCG:  Solving for cellDisplacementx, Initial residual = 7.12053e-07, Final residual = 7.12053e-07, No Iterations 0
   Normalisation factor = 5.27972e-06
DICPCG:  Solving for cellDisplacementz, Initial residual = 3.11037e-07, Final residual = 3.11037e-07, No Iterations 0
   Normalisation factor = 15000
smoothSolver:  Solving for alpha.water, Initial residual = 9.26386e-10, Final residual = 1.81644e-17, No Iterations 1
Phase-1 volume fraction = 0.25  Min(alpha.water) = 0  Max(alpha.water) = 1
MULES: Correcting alpha.water
Phase-1 volume fraction = 0.25  Min(alpha.water) = -2.51346e-92  Max(alpha.water) = 1
--> FOAM Warning : 
    From void Foam::lduMatrix::operator-=(const Foam::lduMatrix&)
    in file matrices/lduMatrix/lduMatrix/lduMatrixOperations.C at line 286
    Unknown matrix type combination
    this : diagonal:0 symmetric:0 asymmetric:1
    A    : diagonal:0 symmetric:0 asymmetric:0
   Normalisation factor = 1104.31
smoothSolver:  Solving for Ux, Initial residual = 0.0126759, Final residual = 3.96076e-12, No Iterations 1
   Normalisation factor = 7601.65
smoothSolver:  Solving for Uz, Initial residual = 0.0185045, Final residual = 6.77236e-12, No Iterations 1
   Normalisation factor = 662617
DICPCG:  Solving for p_rgh, Initial residual = 3.17964e-09, Final residual = 9.68053e-10, No Iterations 5
   Normalisation factor = 665383
DICPCG:  Solving for p_rgh, Initial residual = 9.6403e-10, Final residual = 9.6403e-10, No Iterations 0
time step continuity errors : sum local = 3.20724e-08, global = -2.17572e-08, cumulative = -1.09294e-07
   Normalisation factor = 665383
DICPCG:  Solving for p_rgh, Initial residual = 9.67123e-10, Final residual = 9.67123e-10, No Iterations 0
   Normalisation factor = 665383
DICPCG:  Solving for p_rgh, Initial residual = 9.67123e-10, Final residual = 9.67123e-10, No Iterations 0
time step continuity errors : sum local = 3.21754e-08, global = -2.17572e-08, cumulative = -1.31051e-07
   Normalisation factor = 665383
DICPCG:  Solving for p_rgh, Initial residual = 9.67123e-10, Final residual = 9.67123e-10, No Iterations 0
   Normalisation factor = 665383
DICPCG:  Solving for p_rgh, Initial residual = 9.67123e-10, Final residual = 9.67123e-10, No Iterations 0
time step continuity errors : sum local = 3.21754e-08, global = -2.17572e-08, cumulative = -1.52808e-07
PIMPLE: iteration 4
--> FOAM Warning : 
    From void Foam::lduMatrix::operator-=(const Foam::lduMatrix&)
    in file matrices/lduMatrix/lduMatrix/lduMatrixOperations.C at line 286
    Unknown matrix type combination
    this : diagonal:0 symmetric:1 asymmetric:0
    A    : diagonal:0 symmetric:0 asymmetric:0
   Normalisation factor = 1.01366e-20
DICPCG:  Solving for cellDisplacementx, Initial residual = 7.12053e-07, Final residual = 7.12053e-07, No Iterations 0
   Normalisation factor = 5.27972e-06
DICPCG:  Solving for cellDisplacementz, Initial residual = 3.11037e-07, Final residual = 3.11037e-07, No Iterations 0
   Normalisation factor = 15000
smoothSolver:  Solving for alpha.water, Initial residual = 1.78652e-09, Final residual = 1.89386e-17, No Iterations 1
Phase-1 volume fraction = 0.25  Min(alpha.water) = 0  Max(alpha.water) = 1
MULES: Correcting alpha.water
Phase-1 volume fraction = 0.25  Min(alpha.water) = -1.75162e-50  Max(alpha.water) = 1
--> FOAM Warning : 
    From void Foam::lduMatrix::operator-=(const Foam::lduMatrix&)
    in file matrices/lduMatrix/lduMatrix/lduMatrixOperations.C at line 286
    Unknown matrix type combination
    this : diagonal:0 symmetric:0 asymmetric:1
    A    : diagonal:0 symmetric:0 asymmetric:0
   Normalisation factor = 1106.85
smoothSolver:  Solving for Ux, Initial residual = 0.00885881, Final residual = 4.9755e-12, No Iterations 1
   Normalisation factor = 7750.63
smoothSolver:  Solving for Uz, Initial residual = 0.00770893, Final residual = 3.12178e-12, No Iterations 1
   Normalisation factor = 644274
DICPCG:  Solving for p_rgh, Initial residual = 7.3922e-09, Final residual = 9.21414e-10, No Iterations 9
   Normalisation factor = 645230
DICPCG:  Solving for p_rgh, Initial residual = 9.20049e-10, Final residual = 9.20049e-10, No Iterations 0
time step continuity errors : sum local = 2.96822e-08, global = -2.02421e-08, cumulative = -1.7305e-07
   Normalisation factor = 645230
DICPCG:  Solving for p_rgh, Initial residual = 9.2042e-10, Final residual = 9.2042e-10, No Iterations 0
   Normalisation factor = 645230
DICPCG:  Solving for p_rgh, Initial residual = 9.2042e-10, Final residual = 9.2042e-10, No Iterations 0
time step continuity errors : sum local = 2.96941e-08, global = -2.02421e-08, cumulative = -1.93292e-07
   Normalisation factor = 645230
DICPCG:  Solving for p_rgh, Initial residual = 9.2042e-10, Final residual = 9.2042e-10, No Iterations 0
   Normalisation factor = 645230
DICPCG:  Solving for p_rgh, Initial residual = 9.2042e-10, Final residual = 9.2042e-10, No Iterations 0
time step continuity errors : sum local = 2.96941e-08, global = -2.02421e-08, cumulative = -2.13534e-07
PIMPLE: iteration 5
--> FOAM Warning : 
    From void Foam::lduMatrix::operator-=(const Foam::lduMatrix&)
    in file matrices/lduMatrix/lduMatrix/lduMatrixOperations.C at line 286
    Unknown matrix type combination
    this : diagonal:0 symmetric:1 asymmetric:0
    A    : diagonal:0 symmetric:0 asymmetric:0
   Normalisation factor = 1.01366e-20
DICPCG:  Solving for cellDisplacementx, Initial residual = 7.12053e-07, Final residual = 7.12053e-07, No Iterations 0
   Normalisation factor = 5.27972e-06
DICPCG:  Solving for cellDisplacementz, Initial residual = 3.11037e-07, Final residual = 3.11037e-07, No Iterations 0
   Normalisation factor = 15000
smoothSolver:  Solving for alpha.water, Initial residual = 1.28485e-09, Final residual = 1.68321e-17, No Iterations 1
Phase-1 volume fraction = 0.25  Min(alpha.water) = 0  Max(alpha.water) = 1
MULES: Correcting alpha.water
Phase-1 volume fraction = 0.25  Min(alpha.water) = -1.59309e-62  Max(alpha.water) = 1
--> FOAM Warning : 
    From void Foam::lduMatrix::operator-=(const Foam::lduMatrix&)
    in file matrices/lduMatrix/lduMatrix/lduMatrixOperations.C at line 286
    Unknown matrix type combination
    this : diagonal:0 symmetric:0 asymmetric:1
    A    : diagonal:0 symmetric:0 asymmetric:0
   Normalisation factor = 1094.46
smoothSolver:  Solving for Ux, Initial residual = 0.00315219, Final residual = 3.04552e-12, No Iterations 1
   Normalisation factor = 7683.96
smoothSolver:  Solving for Uz, Initial residual = 0.00375547, Final residual = 2.14358e-12, No Iterations 1
   Normalisation factor = 673968
DICPCG:  Solving for p_rgh, Initial residual = 1.04736e-08, Final residual = 8.90699e-10, No Iterations 9
   Normalisation factor = 673962
DICPCG:  Solving for p_rgh, Initial residual = 8.90707e-10, Final residual = 8.90707e-10, No Iterations 0
time step continuity errors : sum local = 3.00151e-08, global = -1.555e-08, cumulative = -2.29084e-07
   Normalisation factor = 673962
DICPCG:  Solving for p_rgh, Initial residual = 8.90966e-10, Final residual = 8.90966e-10, No Iterations 0
   Normalisation factor = 673962
DICPCG:  Solving for p_rgh, Initial residual = 8.90966e-10, Final residual = 8.90966e-10, No Iterations 0
time step continuity errors : sum local = 3.00239e-08, global = -1.555e-08, cumulative = -2.44634e-07
   Normalisation factor = 673962
DICPCG:  Solving for p_rgh, Initial residual = 8.90966e-10, Final residual = 8.90966e-10, No Iterations 0
   Normalisation factor = 673962
DICPCG:  Solving for p_rgh, Initial residual = 8.90966e-10, Final residual = 8.90966e-10, No Iterations 0
time step continuity errors : sum local = 3.00239e-08, global = -1.555e-08, cumulative = -2.60184e-07
ExecutionTime = 0.64 s  ClockTime = 5 s

(0) 04:04:27 [impl::SolverInterfaceImpl]:435 in advance: [0miteration: 4 of 100, time-window: 1, time: 0 of 1, time-window-size: 0.0001, max-timestep-length: 0.0001, ongoing: yes, time-window-complete: no, read-iteration-checkpoint 
--> FOAM Warning : 
    From void adapterInfo(std::string, std::string)
    in file Utilities.C at line 17
    [36mWarning in the preCICE adapter: [0m
The solver's timestep cannot be larger than the coupling timestep. Adjusting from 0.000500 to 0.000100

Courant Number mean: 0 max: 0
Interface Courant Number mean: 0 max: 0
Time = 0.0001

PIMPLE: iteration 1
--> FOAM Warning : 
    From void Foam::lduMatrix::operator-=(const Foam::lduMatrix&)
    in file matrices/lduMatrix/lduMatrix/lduMatrixOperations.C at line 286
    Unknown matrix type combination
    this : diagonal:0 symmetric:1 asymmetric:0
    A    : diagonal:0 symmetric:0 asymmetric:0
   Normalisation factor = 1.00655e-20
DICPCG:  Solving for cellDisplacementx, Initial residual = 0.00650695, Final residual = 7.17082e-07, No Iterations 55
   Normalisation factor = 1.66886e-06
DICPCG:  Solving for cellDisplacementz, Initial residual = 1, Final residual = 9.84089e-07, No Iterations 54
   Normalisation factor = 15000
smoothSolver:  Solving for alpha.water, Initial residual = 1.23928e-08, Final residual = 3.10862e-18, No Iterations 1
Phase-1 volume fraction = 0.25  Min(alpha.water) = 0  Max(alpha.water) = 1
MULES: Correcting alpha.water
Phase-1 volume fraction = 0.25  Min(alpha.water) = 0  Max(alpha.water) = 1
--> FOAM Warning : 
    From void Foam::lduMatrix::operator-=(const Foam::lduMatrix&)
    in file matrices/lduMatrix/lduMatrix/lduMatrixOperations.C at line 286
    Unknown matrix type combination
    this : diagonal:0 symmetric:0 asymmetric:1
    A    : diagonal:0 symmetric:0 asymmetric:0
   Normalisation factor = 0.000110207
smoothSolver:  Solving for Ux, Initial residual = 1, Final residual = 3.01452e-09, No Iterations 1
   Normalisation factor = 9690.98
smoothSolver:  Solving for Uz, Initial residual = 1, Final residual = 2.42439e-09, No Iterations 1
   Normalisation factor = 171104
DICPCG:  Solving for p_rgh, Initial residual = 1, Final residual = 1.35926e-07, No Iterations 1
   Normalisation factor = 405923
DICPCG:  Solving for p_rgh, Initial residual = 5.73347e-08, Final residual = 9.48204e-10, No Iterations 15
time step continuity errors : sum local = 1.92449e-08, global = -5.92581e-09, cumulative = -2.6611e-07
   Normalisation factor = 598122
DICPCG:  Solving for p_rgh, Initial residual = 8.68709e-08, Final residual = 6.20792e-10, No Iterations 15
   Normalisation factor = 585294
DICPCG:  Solving for p_rgh, Initial residual = 6.34398e-10, Final residual = 6.34398e-10, No Iterations 0
time step continuity errors : sum local = 1.85655e-08, global = 1.61592e-09, cumulative = -2.64494e-07
   Normalisation factor = 585294
DICPCG:  Solving for p_rgh, Initial residual = 7.02433e-10, Final residual = 7.02433e-10, No Iterations 0
   Normalisation factor = 585294
DICPCG:  Solving for p_rgh, Initial residual = 7.02433e-10, Final residual = 7.02433e-10, No Iterations 0
time step continuity errors : sum local = 2.05565e-08, global = 1.61592e-09, cumulative = -2.62878e-07
PIMPLE: iteration 2
--> FOAM Warning : 
    From void Foam::lduMatrix::operator-=(const Foam::lduMatrix&)
    in file matrices/lduMatrix/lduMatrix/lduMatrixOperations.C at line 286
    Unknown matrix type combination
    this : diagonal:0 symmetric:1 asymmetric:0
    A    : diagonal:0 symmetric:0 asymmetric:0
   Normalisation factor = 1.01366e-20
DICPCG:  Solving for cellDisplacementx, Initial residual = 7.12053e-07, Final residual = 7.12053e-07, No Iterations 0
   Normalisation factor = 5.27972e-06
DICPCG:  Solving for cellDisplacementz, Initial residual = 3.11037e-07, Final residual = 3.11037e-07, No Iterations 0
   Normalisation factor = 15000
smoothSolver:  Solving for alpha.water, Initial residual = 2.06387e-08, Final residual = 2.08635e-17, No Iterations 1
Phase-1 volume fraction = 0.25  Min(alpha.water) = 0  Max(alpha.water) = 1
MULES: Correcting alpha.water
Phase-1 volume fraction = 0.25  Min(alpha.water) = -4.81482e-39  Max(alpha.water) = 1
--> FOAM Warning : 
    From void Foam::lduMatrix::operator-=(const Foam::lduMatrix&)
    in file matrices/lduMatrix/lduMatrix/lduMatrixOperations.C at line 286
    Unknown matrix type combination
    this : diagonal:0 symmetric:0 asymmetric:1
    A    : diagonal:0 symmetric:0 asymmetric:0
   Normalisation factor = 1308.47
smoothSolver:  Solving for Ux, Initial residual = 0.199859, Final residual = 8.02257e-13, No Iterations 1
   Normalisation factor = 9715.62
smoothSolver:  Solving for Uz, Initial residual = 0.34907, Final residual = 1.51297e-10, No Iterations 1
   Normalisation factor = 568406
DICPCG:  Solving for p_rgh, Initial residual = 5.75459e-08, Final residual = 8.38064e-10, No Iterations 10
   Normalisation factor = 653360
DICPCG:  Solving for p_rgh, Initial residual = 7.29094e-10, Final residual = 7.29094e-10, No Iterations 0
time step continuity errors : sum local = 2.3818e-08, global = -1.39252e-08, cumulative = -2.76804e-07
   Normalisation factor = 653360
DICPCG:  Solving for p_rgh, Initial residual = 7.79427e-10, Final residual = 7.79427e-10, No Iterations 0
   Normalisation factor = 653360
DICPCG:  Solving for p_rgh, Initial residual = 7.79427e-10, Final residual = 7.79427e-10, No Iterations 0
time step continuity errors : sum local = 2.54623e-08, global = -1.39252e-08, cumulative = -2.90729e-07
   Normalisation factor = 653360
DICPCG:  Solving for p_rgh, Initial residual = 7.79427e-10, Final residual = 7.79427e-10, No Iterations 0
   Normalisation factor = 653360
DICPCG:  Solving for p_rgh, Initial residual = 7.79427e-10, Final residual = 7.79427e-10, No Iterations 0
time step continuity errors : sum local = 2.54623e-08, global = -1.39252e-08, cumulative = -3.04654e-07
PIMPLE: iteration 3
--> FOAM Warning : 
    From void Foam::lduMatrix::operator-=(const Foam::lduMatrix&)
    in file matrices/lduMatrix/lduMatrix/lduMatrixOperations.C at line 286
    Unknown matrix type combination
    this : diagonal:0 symmetric:1 asymmetric:0
    A    : diagonal:0 symmetric:0 asymmetric:0
   Normalisation factor = 1.01366e-20
DICPCG:  Solving for cellDisplacementx, Initial residual = 7.12053e-07, Final residual = 7.12053e-07, No Iterations 0
   Normalisation factor = 5.27972e-06
DICPCG:  Solving for cellDisplacementz, Initial residual = 3.11037e-07, Final residual = 3.11037e-07, No Iterations 0
   Normalisation factor = 15000
smoothSolver:  Solving for alpha.water, Initial residual = 9.26386e-10, Final residual = 1.72128e-17, No Iterations 1
Phase-1 volume fraction = 0.25  Min(alpha.water) = -1.66084e-53  Max(alpha.water) = 1
MULES: Correcting alpha.water
Phase-1 volume fraction = 0.25  Min(alpha.water) = -1.66084e-53  Max(alpha.water) = 1
--> FOAM Warning : 
    From void Foam::lduMatrix::operator-=(const Foam::lduMatrix&)
    in file matrices/lduMatrix/lduMatrix/lduMatrixOperations.C at line 286
    Unknown matrix type combination
    this : diagonal:0 symmetric:0 asymmetric:1
    A    : diagonal:0 symmetric:0 asymmetric:0
   Normalisation factor = 1104.31
smoothSolver:  Solving for Ux, Initial residual = 0.0126759, Final residual = 3.96076e-12, No Iterations 1
   Normalisation factor = 7601.65
smoothSolver:  Solving for Uz, Initial residual = 0.0185045, Final residual = 6.77236e-12, No Iterations 1
   Normalisation factor = 662617
DICPCG:  Solving for p_rgh, Initial residual = 3.17964e-09, Final residual = 9.68053e-10, No Iterations 5
   Normalisation factor = 665383
DICPCG:  Solving for p_rgh, Initial residual = 9.6403e-10, Final residual = 9.6403e-10, No Iterations 0
time step continuity errors : sum local = 3.20724e-08, global = -2.17572e-08, cumulative = -3.26411e-07
   Normalisation factor = 665383
DICPCG:  Solving for p_rgh, Initial residual = 9.67123e-10, Final residual = 9.67123e-10, No Iterations 0
   Normalisation factor = 665383
DICPCG:  Solving for p_rgh, Initial residual = 9.67123e-10, Final residual = 9.67123e-10, No Iterations 0
time step continuity errors : sum local = 3.21754e-08, global = -2.17572e-08, cumulative = -3.48168e-07
   Normalisation factor = 665383
DICPCG:  Solving for p_rgh, Initial residual = 9.67123e-10, Final residual = 9.67123e-10, No Iterations 0
   Normalisation factor = 665383
DICPCG:  Solving for p_rgh, Initial residual = 9.67123e-10, Final residual = 9.67123e-10, No Iterations 0
time step continuity errors : sum local = 3.21754e-08, global = -2.17572e-08, cumulative = -3.69926e-07
PIMPLE: iteration 4
--> FOAM Warning : 
    From void Foam::lduMatrix::operator-=(const Foam::lduMatrix&)
    in file matrices/lduMatrix/lduMatrix/lduMatrixOperations.C at line 286
    Unknown matrix type combination
    this : diagonal:0 symmetric:1 asymmetric:0
    A    : diagonal:0 symmetric:0 asymmetric:0
   Normalisation factor = 1.01366e-20
DICPCG:  Solving for cellDisplacementx, Initial residual = 7.12053e-07, Final residual = 7.12053e-07, No Iterations 0
   Normalisation factor = 5.27972e-06
DICPCG:  Solving for cellDisplacementz, Initial residual = 3.11037e-07, Final residual = 3.11037e-07, No Iterations 0
   Normalisation factor = 15000
smoothSolver:  Solving for alpha.water, Initial residual = 1.78652e-09, Final residual = 1.86758e-17, No Iterations 1
Phase-1 volume fraction = 0.25  Min(alpha.water) = 0  Max(alpha.water) = 1
MULES: Correcting alpha.water
Phase-1 volume fraction = 0.25  Min(alpha.water) = -1.75162e-50  Max(alpha.water) = 1
--> FOAM Warning : 
    From void Foam::lduMatrix::operator-=(const Foam::lduMatrix&)
    in file matrices/lduMatrix/lduMatrix/lduMatrixOperations.C at line 286
    Unknown matrix type combination
    this : diagonal:0 symmetric:0 asymmetric:1
    A    : diagonal:0 symmetric:0 asymmetric:0
   Normalisation factor = 1106.85
smoothSolver:  Solving for Ux, Initial residual = 0.00885881, Final residual = 4.9755e-12, No Iterations 1
   Normalisation factor = 7750.63
smoothSolver:  Solving for Uz, Initial residual = 0.00770893, Final residual = 3.12178e-12, No Iterations 1
   Normalisation factor = 644274
DICPCG:  Solving for p_rgh, Initial residual = 7.3922e-09, Final residual = 9.21414e-10, No Iterations 9
   Normalisation factor = 645230
DICPCG:  Solving for p_rgh, Initial residual = 9.20049e-10, Final residual = 9.20049e-10, No Iterations 0
time step continuity errors : sum local = 2.96822e-08, global = -2.02421e-08, cumulative = -3.90168e-07
   Normalisation factor = 645230
DICPCG:  Solving for p_rgh, Initial residual = 9.2042e-10, Final residual = 9.2042e-10, No Iterations 0
   Normalisation factor = 645230
DICPCG:  Solving for p_rgh, Initial residual = 9.2042e-10, Final residual = 9.2042e-10, No Iterations 0
time step continuity errors : sum local = 2.96941e-08, global = -2.02421e-08, cumulative = -4.1041e-07
   Normalisation factor = 645230
DICPCG:  Solving for p_rgh, Initial residual = 9.2042e-10, Final residual = 9.2042e-10, No Iterations 0
   Normalisation factor = 645230
DICPCG:  Solving for p_rgh, Initial residual = 9.2042e-10, Final residual = 9.2042e-10, No Iterations 0
time step continuity errors : sum local = 2.96941e-08, global = -2.02421e-08, cumulative = -4.30652e-07
PIMPLE: iteration 5
--> FOAM Warning : 
    From void Foam::lduMatrix::operator-=(const Foam::lduMatrix&)
    in file matrices/lduMatrix/lduMatrix/lduMatrixOperations.C at line 286
    Unknown matrix type combination
    this : diagonal:0 symmetric:1 asymmetric:0
    A    : diagonal:0 symmetric:0 asymmetric:0
   Normalisation factor = 1.01366e-20
DICPCG:  Solving for cellDisplacementx, Initial residual = 7.12053e-07, Final residual = 7.12053e-07, No Iterations 0
   Normalisation factor = 5.27972e-06
DICPCG:  Solving for cellDisplacementz, Initial residual = 3.11037e-07, Final residual = 3.11037e-07, No Iterations 0
   Normalisation factor = 15000
smoothSolver:  Solving for alpha.water, Initial residual = 1.28485e-09, Final residual = 1.71931e-17, No Iterations 1
Phase-1 volume fraction = 0.25  Min(alpha.water) = 0  Max(alpha.water) = 1
MULES: Correcting alpha.water
Phase-1 volume fraction = 0.25  Min(alpha.water) = -1.59309e-62  Max(alpha.water) = 1
--> FOAM Warning : 
    From void Foam::lduMatrix::operator-=(const Foam::lduMatrix&)
    in file matrices/lduMatrix/lduMatrix/lduMatrixOperations.C at line 286
    Unknown matrix type combination
    this : diagonal:0 symmetric:0 asymmetric:1
    A    : diagonal:0 symmetric:0 asymmetric:0
   Normalisation factor = 1094.46
smoothSolver:  Solving for Ux, Initial residual = 0.00315219, Final residual = 3.04552e-12, No Iterations 1
   Normalisation factor = 7683.96
smoothSolver:  Solving for Uz, Initial residual = 0.00375547, Final residual = 2.14358e-12, No Iterations 1
   Normalisation factor = 673968
DICPCG:  Solving for p_rgh, Initial residual = 1.04736e-08, Final residual = 8.907e-10, No Iterations 9
   Normalisation factor = 673962
DICPCG:  Solving for p_rgh, Initial residual = 8.90708e-10, Final residual = 8.90708e-10, No Iterations 0
time step continuity errors : sum local = 3.00152e-08, global = -1.555e-08, cumulative = -4.46202e-07
   Normalisation factor = 673962
DICPCG:  Solving for p_rgh, Initial residual = 8.90966e-10, Final residual = 8.90966e-10, No Iterations 0
   Normalisation factor = 673962
DICPCG:  Solving for p_rgh, Initial residual = 8.90966e-10, Final residual = 8.90966e-10, No Iterations 0
time step continuity errors : sum local = 3.00239e-08, global = -1.555e-08, cumulative = -4.61752e-07
   Normalisation factor = 673962
DICPCG:  Solving for p_rgh, Initial residual = 8.90966e-10, Final residual = 8.90966e-10, No Iterations 0
   Normalisation factor = 673962
DICPCG:  Solving for p_rgh, Initial residual = 8.90966e-10, Final residual = 8.90966e-10, No Iterations 0
time step continuity errors : sum local = 3.00239e-08, global = -1.555e-08, cumulative = -4.77302e-07
ExecutionTime = 0.84 s  ClockTime = 8 s

(0) 04:04:30 [impl::SolverInterfaceImpl]:435 in advance: [0miteration: 5 of 100, time-window: 1, time: 0 of 1, time-window-size: 0.0001, max-timestep-length: 0.0001, ongoing: yes, time-window-complete: no, read-iteration-checkpoint 
--> FOAM Warning : 
    From void adapterInfo(std::string, std::string)
    in file Utilities.C at line 17
    [36mWarning in the preCICE adapter: [0m
The solver's timestep cannot be larger than the coupling timestep. Adjusting from 0.000500 to 0.000100

Courant Number mean: 0 max: 0
Interface Courant Number mean: 0 max: 0
Time = 0.0001

PIMPLE: iteration 1
--> FOAM Warning : 
    From void Foam::lduMatrix::operator-=(const Foam::lduMatrix&)
    in file matrices/lduMatrix/lduMatrix/lduMatrixOperations.C at line 286
    Unknown matrix type combination
    this : diagonal:0 symmetric:1 asymmetric:0
    A    : diagonal:0 symmetric:0 asymmetric:0
   Normalisation factor = 1.00655e-20
DICPCG:  Solving for cellDisplacementx, Initial residual = 0.00650695, Final residual = 7.17082e-07, No Iterations 55
   Normalisation factor = 1.66886e-06
DICPCG:  Solving for cellDisplacementz, Initial residual = 1, Final residual = 9.84089e-07, No Iterations 54
   Normalisation factor = 15000
smoothSolver:  Solving for alpha.water, Initial residual = 1.23928e-08, Final residual = 2.87178e-18, No Iterations 1
Phase-1 volume fraction = 0.25  Min(alpha.water) = 0  Max(alpha.water) = 1
MULES: Correcting alpha.water
Phase-1 volume fraction = 0.25  Min(alpha.water) = 0  Max(alpha.water) = 1
--> FOAM Warning : 
    From void Foam::lduMatrix::operator-=(const Foam::lduMatrix&)
    in file matrices/lduMatrix/lduMatrix/lduMatrixOperations.C at line 286
    Unknown matrix type combination
    this : diagonal:0 symmetric:0 asymmetric:1
    A    : diagonal:0 symmetric:0 asymmetric:0
   Normalisation factor = 0.000110207
smoothSolver:  Solving for Ux, Initial residual = 1, Final residual = 3.01452e-09, No Iterations 1
   Normalisation factor = 9690.98
smoothSolver:  Solving for Uz, Initial residual = 1, Final residual = 2.42439e-09, No Iterations 1
   Normalisation factor = 171104
DICPCG:  Solving for p_rgh, Initial residual = 1, Final residual = 1.35926e-07, No Iterations 1
   Normalisation factor = 405923
DICPCG:  Solving for p_rgh, Initial residual = 5.73347e-08, Final residual = 9.48204e-10, No Iterations 15
time step continuity errors : sum local = 1.92449e-08, global = -5.92581e-09, cumulative = -4.83228e-07
   Normalisation factor = 598122
DICPCG:  Solving for p_rgh, Initial residual = 8.68709e-08, Final residual = 6.20792e-10, No Iterations 15
   Normalisation factor = 585294
DICPCG:  Solving for p_rgh, Initial residual = 6.34398e-10, Final residual = 6.34398e-10, No Iterations 0
time step continuity errors : sum local = 1.85655e-08, global = 1.61592e-09, cumulative = -4.81612e-07
   Normalisation factor = 585294
DICPCG:  Solving for p_rgh, Initial residual = 7.02433e-10, Final residual = 7.02433e-10, No Iterations 0
   Normalisation factor = 585294
DICPCG:  Solving for p_rgh, Initial residual = 7.02433e-10, Final residual = 7.02433e-10, No Iterations 0
time step continuity errors : sum local = 2.05565e-08, global = 1.61592e-09, cumulative = -4.79996e-07
PIMPLE: iteration 2
--> FOAM Warning : 
    From void Foam::lduMatrix::operator-=(const Foam::lduMatrix&)
    in file matrices/lduMatrix/lduMatrix/lduMatrixOperations.C at line 286
    Unknown matrix type combination
    this : diagonal:0 symmetric:1 asymmetric:0
    A    : diagonal:0 symmetric:0 asymmetric:0
   Normalisation factor = 1.01366e-20
DICPCG:  Solving for cellDisplacementx, Initial residual = 7.12053e-07, Final residual = 7.12053e-07, No Iterations 0
   Normalisation factor = 5.27972e-06
DICPCG:  Solving for cellDisplacementz, Initial residual = 3.11037e-07, Final residual = 3.11037e-07, No Iterations 0
   Normalisation factor = 15000
smoothSolver:  Solving for alpha.water, Initial residual = 2.06387e-08, Final residual = 2.03749e-17, No Iterations 1
Phase-1 volume fraction = 0.25  Min(alpha.water) = 0  Max(alpha.water) = 1
MULES: Correcting alpha.water
Phase-1 volume fraction = 0.25  Min(alpha.water) = -4.07832e-60  Max(alpha.water) = 1
--> FOAM Warning : 
    From void Foam::lduMatrix::operator-=(const Foam::lduMatrix&)
    in file matrices/lduMatrix/lduMatrix/lduMatrixOperations.C at line 286
    Unknown matrix type combination
    this : diagonal:0 symmetric:0 asymmetric:1
    A    : diagonal:0 symmetric:0 asymmetric:0
   Normalisation factor = 1308.47
smoothSolver:  Solving for Ux, Initial residual = 0.199859, Final residual = 8.02257e-13, No Iterations 1
   Normalisation factor = 9715.62
smoothSolver:  Solving for Uz, Initial residual = 0.34907, Final residual = 1.51297e-10, No Iterations 1
   Normalisation factor = 568406
DICPCG:  Solving for p_rgh, Initial residual = 5.75459e-08, Final residual = 8.38064e-10, No Iterations 10
   Normalisation factor = 653360
DICPCG:  Solving for p_rgh, Initial residual = 7.29094e-10, Final residual = 7.29094e-10, No Iterations 0
time step continuity errors : sum local = 2.3818e-08, global = -1.39252e-08, cumulative = -4.93921e-07
   Normalisation factor = 653360
DICPCG:  Solving for p_rgh, Initial residual = 7.79427e-10, Final residual = 7.79427e-10, No Iterations 0
   Normalisation factor = 653360
DICPCG:  Solving for p_rgh, Initial residual = 7.79427e-10, Final residual = 7.79427e-10, No Iterations 0
time step continuity errors : sum local = 2.54623e-08, global = -1.39252e-08, cumulative = -5.07846e-07
   Normalisation factor = 653360
DICPCG:  Solving for p_rgh, Initial residual = 7.79427e-10, Final residual = 7.79427e-10, No Iterations 0
   Normalisation factor = 653360
DICPCG:  Solving for p_rgh, Initial residual = 7.79427e-10, Final residual = 7.79427e-10, No Iterations 0
time step continuity errors : sum local = 2.54623e-08, global = -1.39252e-08, cumulative = -5.21772e-07
PIMPLE: iteration 3
--> FOAM Warning : 
    From void Foam::lduMatrix::operator-=(const Foam::lduMatrix&)
    in file matrices/lduMatrix/lduMatrix/lduMatrixOperations.C at line 286
    Unknown matrix type combination
    this : diagonal:0 symmetric:1 asymmetric:0
    A    : diagonal:0 symmetric:0 asymmetric:0
   Normalisation factor = 1.01366e-20
DICPCG:  Solving for cellDisplacementx, Initial residual = 7.12053e-07, Final residual = 7.12053e-07, No Iterations 0
   Normalisation factor = 5.27972e-06
DICPCG:  Solving for cellDisplacementz, Initial residual = 3.11037e-07, Final residual = 3.11037e-07, No Iterations 0
   Normalisation factor = 15000
smoothSolver:  Solving for alpha.water, Initial residual = 9.26386e-10, Final residual = 1.67732e-17, No Iterations 1
Phase-1 volume fraction = 0.25  Min(alpha.water) = 0  Max(alpha.water) = 1
MULES: Correcting alpha.water
Phase-1 volume fraction = 0.25  Min(alpha.water) = -9.49557e-70  Max(alpha.water) = 1
--> FOAM Warning : 
    From void Foam::lduMatrix::operator-=(const Foam::lduMatrix&)
    in file matrices/lduMatrix/lduMatrix/lduMatrixOperations.C at line 286
    Unknown matrix type combination
    this : diagonal:0 symmetric:0 asymmetric:1
    A    : diagonal:0 symmetric:0 asymmetric:0
   Normalisation factor = 1104.31
smoothSolver:  Solving for Ux, Initial residual = 0.0126759, Final residual = 3.96076e-12, No Iterations 1
   Normalisation factor = 7601.65
smoothSolver:  Solving for Uz, Initial residual = 0.0185045, Final residual = 6.77236e-12, No Iterations 1
   Normalisation factor = 662617
DICPCG:  Solving for p_rgh, Initial residual = 3.17964e-09, Final residual = 9.68053e-10, No Iterations 5
   Normalisation factor = 665383
DICPCG:  Solving for p_rgh, Initial residual = 9.6403e-10, Final residual = 9.6403e-10, No Iterations 0
time step continuity errors : sum local = 3.20724e-08, global = -2.17572e-08, cumulative = -5.43529e-07
   Normalisation factor = 665383
DICPCG:  Solving for p_rgh, Initial residual = 9.67123e-10, Final residual = 9.67123e-10, No Iterations 0
   Normalisation factor = 665383
DICPCG:  Solving for p_rgh, Initial residual = 9.67123e-10, Final residual = 9.67123e-10, No Iterations 0
time step continuity errors : sum local = 3.21754e-08, global = -2.17572e-08, cumulative = -5.65286e-07
   Normalisation factor = 665383
DICPCG:  Solving for p_rgh, Initial residual = 9.67123e-10, Final residual = 9.67123e-10, No Iterations 0
   Normalisation factor = 665383
DICPCG:  Solving for p_rgh, Initial residual = 9.67123e-10, Final residual = 9.67123e-10, No Iterations 0
time step continuity errors : sum local = 3.21754e-08, global = -2.17572e-08, cumulative = -5.87043e-07
PIMPLE: iteration 4
--> FOAM Warning : 
    From void Foam::lduMatrix::operator-=(const Foam::lduMatrix&)
    in file matrices/lduMatrix/lduMatrix/lduMatrixOperations.C at line 286
    Unknown matrix type combination
    this : diagonal:0 symmetric:1 asymmetric:0
    A    : diagonal:0 symmetric:0 asymmetric:0
   Normalisation factor = 1.01366e-20
DICPCG:  Solving for cellDisplacementx, Initial residual = 7.12053e-07, Final residual = 7.12053e-07, No Iterations 0
   Normalisation factor = 5.27972e-06
DICPCG:  Solving for cellDisplacementz, Initial residual = 3.11037e-07, Final residual = 3.11037e-07, No Iterations 0
   Normalisation factor = 15000
smoothSolver:  Solving for alpha.water, Initial residual = 1.78652e-09, Final residual = 1.8839e-17, No Iterations 1
Phase-1 volume fraction = 0.25  Min(alpha.water) = 0  Max(alpha.water) = 1
MULES: Correcting alpha.water
Phase-1 volume fraction = 0.25  Min(alpha.water) = -1.75162e-50  Max(alpha.water) = 1
--> FOAM Warning : 
    From void Foam::lduMatrix::operator-=(const Foam::lduMatrix&)
    in file matrices/lduMatrix/lduMatrix/lduMatrixOperations.C at line 286
    Unknown matrix type combination
    this : diagonal:0 symmetric:0 asymmetric:1
    A    : diagonal:0 symmetric:0 asymmetric:0
   Normalisation factor = 1106.85
smoothSolver:  Solving for Ux, Initial residual = 0.00885881, Final residual = 4.97551e-12, No Iterations 1
   Normalisation factor = 7750.63
smoothSolver:  Solving for Uz, Initial residual = 0.00770893, Final residual = 3.12178e-12, No Iterations 1
   Normalisation factor = 644274
DICPCG:  Solving for p_rgh, Initial residual = 7.39219e-09, Final residual = 9.21414e-10, No Iterations 9
   Normalisation factor = 645230
DICPCG:  Solving for p_rgh, Initial residual = 9.20049e-10, Final residual = 9.20049e-10, No Iterations 0
time step continuity errors : sum local = 2.96822e-08, global = -2.02421e-08, cumulative = -6.07285e-07
   Normalisation factor = 645230
DICPCG:  Solving for p_rgh, Initial residual = 9.2042e-10, Final residual = 9.2042e-10, No Iterations 0
   Normalisation factor = 645230
DICPCG:  Solving for p_rgh, Initial residual = 9.2042e-10, Final residual = 9.2042e-10, No Iterations 0
time step continuity errors : sum local = 2.96941e-08, global = -2.02421e-08, cumulative = -6.27527e-07
   Normalisation factor = 645230
DICPCG:  Solving for p_rgh, Initial residual = 9.2042e-10, Final residual = 9.2042e-10, No Iterations 0
   Normalisation factor = 645230
DICPCG:  Solving for p_rgh, Initial residual = 9.2042e-10, Final residual = 9.2042e-10, No Iterations 0
time step continuity errors : sum local = 2.96941e-08, global = -2.02421e-08, cumulative = -6.47769e-07
PIMPLE: iteration 5
--> FOAM Warning : 
    From void Foam::lduMatrix::operator-=(const Foam::lduMatrix&)
    in file matrices/lduMatrix/lduMatrix/lduMatrixOperations.C at line 286
    Unknown matrix type combination
    this : diagonal:0 symmetric:1 asymmetric:0
    A    : diagonal:0 symmetric:0 asymmetric:0
   Normalisation factor = 1.01366e-20
DICPCG:  Solving for cellDisplacementx, Initial residual = 7.12053e-07, Final residual = 7.12053e-07, No Iterations 0
   Normalisation factor = 5.27972e-06
DICPCG:  Solving for cellDisplacementz, Initial residual = 3.11037e-07, Final residual = 3.11037e-07, No Iterations 0
   Normalisation factor = 15000
smoothSolver:  Solving for alpha.water, Initial residual = 1.28485e-09, Final residual = 1.72262e-17, No Iterations 1
Phase-1 volume fraction = 0.25  Min(alpha.water) = 0  Max(alpha.water) = 1
MULES: Correcting alpha.water
Phase-1 volume fraction = 0.25  Min(alpha.water) = -2.86986e-46  Max(alpha.water) = 1
--> FOAM Warning : 
    From void Foam::lduMatrix::operator-=(const Foam::lduMatrix&)
    in file matrices/lduMatrix/lduMatrix/lduMatrixOperations.C at line 286
    Unknown matrix type combination
    this : diagonal:0 symmetric:0 asymmetric:1
    A    : diagonal:0 symmetric:0 asymmetric:0
   Normalisation factor = 1094.46
smoothSolver:  Solving for Ux, Initial residual = 0.00315219, Final residual = 3.04552e-12, No Iterations 1
   Normalisation factor = 7683.96
smoothSolver:  Solving for Uz, Initial residual = 0.00375547, Final residual = 2.14358e-12, No Iterations 1
   Normalisation factor = 673968
DICPCG:  Solving for p_rgh, Initial residual = 1.04736e-08, Final residual = 8.907e-10, No Iterations 9
   Normalisation factor = 673962
DICPCG:  Solving for p_rgh, Initial residual = 8.90708e-10, Final residual = 8.90708e-10, No Iterations 0
time step continuity errors : sum local = 3.00152e-08, global = -1.555e-08, cumulative = -6.6332e-07
   Normalisation factor = 673962
DICPCG:  Solving for p_rgh, Initial residual = 8.90966e-10, Final residual = 8.90966e-10, No Iterations 0
   Normalisation factor = 673962
DICPCG:  Solving for p_rgh, Initial residual = 8.90966e-10, Final residual = 8.90966e-10, No Iterations 0
time step continuity errors : sum local = 3.00239e-08, global = -1.555e-08, cumulative = -6.7887e-07
   Normalisation factor = 673962
DICPCG:  Solving for p_rgh, Initial residual = 8.90966e-10, Final residual = 8.90966e-10, No Iterations 0
   Normalisation factor = 673962
DICPCG:  Solving for p_rgh, Initial residual = 8.90966e-10, Final residual = 8.90966e-10, No Iterations 0
time step continuity errors : sum local = 3.00239e-08, global = -1.555e-08, cumulative = -6.9442e-07
ExecutionTime = 1.02 s  ClockTime = 11 s

(0) 04:04:33 [impl::SolverInterfaceImpl]:435 in advance: [0miteration: 6 of 100, time-window: 1, time: 0 of 1, time-window-size: 0.0001, max-timestep-length: 0.0001, ongoing: yes, time-window-complete: no, read-iteration-checkpoint 
--> FOAM Warning : 
    From void adapterInfo(std::string, std::string)
    in file Utilities.C at line 17
    [36mWarning in the preCICE adapter: [0m
The solver's timestep cannot be larger than the coupling timestep. Adjusting from 0.000500 to 0.000100

Courant Number mean: 0 max: 0
Interface Courant Number mean: 0 max: 0
Time = 0.0001

PIMPLE: iteration 1
--> FOAM Warning : 
    From void Foam::lduMatrix::operator-=(const Foam::lduMatrix&)
    in file matrices/lduMatrix/lduMatrix/lduMatrixOperations.C at line 286
    Unknown matrix type combination
    this : diagonal:0 symmetric:1 asymmetric:0
    A    : diagonal:0 symmetric:0 asymmetric:0
   Normalisation factor = 1e-20
DICPCG:  Solving for cellDisplacementx, Initial residual = 8.64642e-08, Final residual = 8.64642e-08, No Iterations 0
   Normalisation factor = 2.20315e-11
DICPCG:  Solving for cellDisplacementz, Initial residual = 1, Final residual = 9.84089e-07, No Iterations 54
   Normalisation factor = 15000
smoothSolver:  Solving for alpha.water, Initial residual = 1.63647e-13, Final residual = 2.90138e-18, No Iterations 1
Phase-1 volume fraction = 0.25  Min(alpha.water) = 0  Max(alpha.water) = 1
MULES: Correcting alpha.water
Phase-1 volume fraction = 0.25  Min(alpha.water) = 0  Max(alpha.water) = 1
--> FOAM Warning : 
    From void Foam::lduMatrix::operator-=(const Foam::lduMatrix&)
    in file matrices/lduMatrix/lduMatrix/lduMatrixOperations.C at line 286
    Unknown matrix type combination
    this : diagonal:0 symmetric:0 asymmetric:1
    A    : diagonal:0 symmetric:0 asymmetric:0
   Normalisation factor = 1.47222e-09
smoothSolver:  Solving for Ux, Initial residual = 1, Final residual = 2.98829e-09, No Iterations 1
   Normalisation factor = 9690.98
smoothSolver:  Solving for Uz, Initial residual = 1, Final residual = 2.42439e-09, No Iterations 1
   Normalisation factor = 171104
DICPCG:  Solving for p_rgh, Initial residual = 1, Final residual = 1.37323e-07, No Iterations 1
   Normalisation factor = 421641
DICPCG:  Solving for p_rgh, Initial residual = 5.57265e-08, Final residual = 7.4136e-10, No Iterations 29
[...]
   Normalisation factor = 674560
DICPCG:  Solving for p_rgh, Initial residual = 8.41165e-10, Final residual = 8.41165e-10, No Iterations 0
time step continuity errors : sum local = 2.83708e-08, global = -8.51604e-10, cumulative = -7.53127e-07
   Normalisation factor = 674560
DICPCG:  Solving for p_rgh, Initial residual = 8.41165e-10, Final residual = 8.41165e-10, No Iterations 0
   Normalisation factor = 674560
DICPCG:  Solving for p_rgh, Initial residual = 8.41165e-10, Final residual = 8.41165e-10, No Iterations 0
time step continuity errors : sum local = 2.83708e-08, global = -8.51604e-10, cumulative = -7.53979e-07
PIMPLE: iteration 4
--> FOAM Warning : 
    From void Foam::lduMatrix::operator-=(const Foam::lduMatrix&)
    in file matrices/lduMatrix/lduMatrix/lduMatrixOperations.C at line 286
    Unknown matrix type combination
    this : diagonal:0 symmetric:1 asymmetric:0
    A    : diagonal:0 symmetric:0 asymmetric:0
   Normalisation factor = 1e-20
DICPCG:  Solving for cellDisplacementx, Initial residual = 9.14124e-08, Final residual = 9.14124e-08, No Iterations 0
   Normalisation factor = 7.36891e-11
DICPCG:  Solving for cellDisplacementz, Initial residual = 3.1106e-07, Final residual = 3.1106e-07, No Iterations 0
   Normalisation factor = 15000
smoothSolver:  Solving for alpha.water, Initial residual = 6.89989e-10, Final residual = 1.50679e-17, No Iterations 1
Phase-1 volume fraction = 0.25  Min(alpha.water) = 0  Max(alpha.water) = 1
MULES: Correcting alpha.water
Phase-1 volume fraction = 0.25  Min(alpha.water) = -2.61012e-58  Max(alpha.water) = 1
--> FOAM Warning : 
    From void Foam::lduMatrix::operator-=(const Foam::lduMatrix&)
    in file matrices/lduMatrix/lduMatrix/lduMatrixOperations.C at line 286
    Unknown matrix type combination
    this : diagonal:0 symmetric:0 asymmetric:1
    A    : diagonal:0 symmetric:0 asymmetric:0
   Normalisation factor = 1.03338
smoothSolver:  Solving for Ux, Initial residual = 0.226169, Final residual = 1.61041e-10, No Iterations 1
   Normalisation factor = 1554.95
smoothSolver:  Solving for Uz, Initial residual = 0.032925, Final residual = 7.91719e-12, No Iterations 1
   Normalisation factor = 761861
DICPCG:  Solving for p_rgh, Initial residual = 7.53882e-09, Final residual = 8.89866e-10, No Iterations 2
   Normalisation factor = 761928
DICPCG:  Solving for p_rgh, Initial residual = 8.89788e-10, Final residual = 8.89788e-10, No Iterations 0
time step continuity errors : sum local = 3.38977e-08, global = -3.36288e-10, cumulative = -7.54315e-07
   Normalisation factor = 761928
DICPCG:  Solving for p_rgh, Initial residual = 8.90354e-10, Final residual = 8.90354e-10, No Iterations 0
   Normalisation factor = 761928
DICPCG:  Solving for p_rgh, Initial residual = 8.90354e-10, Final residual = 8.90354e-10, No Iterations 0
time step continuity errors : sum local = 3.39193e-08, global = -3.36288e-10, cumulative = -7.54651e-07
   Normalisation factor = 761928
DICPCG:  Solving for p_rgh, Initial residual = 8.90354e-10, Final residual = 8.90354e-10, No Iterations 0
   Normalisation factor = 761928
DICPCG:  Solving for p_rgh, Initial residual = 8.90354e-10, Final residual = 8.90354e-10, No Iterations 0
time step continuity errors : sum local = 3.39193e-08, global = -3.36288e-10, cumulative = -7.54987e-07
PIMPLE: iteration 5
--> FOAM Warning : 
    From void Foam::lduMatrix::operator-=(const Foam::lduMatrix&)
    in file matrices/lduMatrix/lduMatrix/lduMatrixOperations.C at line 286
    Unknown matrix type combination
    this : diagonal:0 symmetric:1 asymmetric:0
    A    : diagonal:0 symmetric:0 asymmetric:0
   Normalisation factor = 1e-20
DICPCG:  Solving for cellDisplacementx, Initial residual = 9.14124e-08, Final residual = 9.14124e-08, No Iterations 0
   Normalisation factor = 7.36891e-11
DICPCG:  Solving for cellDisplacementz, Initial residual = 3.1106e-07, Final residual = 3.1106e-07, No Iterations 0
   Normalisation factor = 15000
smoothSolver:  Solving for alpha.water, Initial residual = 8.87581e-09, Final residual = 3.09163e-17, No Iterations 1
Phase-1 volume fraction = 0.25  Min(alpha.water) = 0  Max(alpha.water) = 1
MULES: Correcting alpha.water
Phase-1 volume fraction = 0.25  Min(alpha.water) = -6.52009e-73  Max(alpha.water) = 1
--> FOAM Warning : 
    From void Foam::lduMatrix::operator-=(const Foam::lduMatrix&)
    in file matrices/lduMatrix/lduMatrix/lduMatrixOperations.C at line 286
    Unknown matrix type combination
    this : diagonal:0 symmetric:0 asymmetric:1
    A    : diagonal:0 symmetric:0 asymmetric:0
   Normalisation factor = 2.08392
smoothSolver:  Solving for Ux, Initial residual = 0.0422687, Final residual = 1.0798e-10, No Iterations 1
   Normalisation factor = 1899.6
smoothSolver:  Solving for Uz, Initial residual = 0.0134627, Final residual = 3.23871e-12, No Iterations 1
   Normalisation factor = 483974
DICPCG:  Solving for p_rgh, Initial residual = 7.16706e-08, Final residual = 7.42857e-10, No Iterations 11
   Normalisation factor = 484214
DICPCG:  Solving for p_rgh, Initial residual = 7.4249e-10, Final residual = 7.4249e-10, No Iterations 0
time step continuity errors : sum local = 1.79762e-08, global = -1.34382e-09, cumulative = -7.56331e-07
   Normalisation factor = 484214
DICPCG:  Solving for p_rgh, Initial residual = 7.43621e-10, Final residual = 7.43621e-10, No Iterations 0
   Normalisation factor = 484214
DICPCG:  Solving for p_rgh, Initial residual = 7.43621e-10, Final residual = 7.43621e-10, No Iterations 0
time step continuity errors : sum local = 1.80036e-08, global = -1.34382e-09, cumulative = -7.57675e-07
   Normalisation factor = 484214
DICPCG:  Solving for p_rgh, Initial residual = 7.43621e-10, Final residual = 7.43621e-10, No Iterations 0
   Normalisation factor = 484214
DICPCG:  Solving for p_rgh, Initial residual = 7.43621e-10, Final residual = 7.43621e-10, No Iterations 0
time step continuity errors : sum local = 1.80036e-08, global = -1.34382e-09, cumulative = -7.59019e-07
ExecutionTime = 1.59 s  ClockTime = 21 s

(0) 04:04:43 [impl::SolverInterfaceImpl]:435 in advance: [0miteration: 9 of 100, time-window: 1, time: 0 of 1, time-window-size: 0.0001, max-timestep-length: 0.0001, ongoing: yes, time-window-complete: no, read-iteration-checkpoint 
--> FOAM Warning : 
    From void adapterInfo(std::string, std::string)
    in file Utilities.C at line 17
    [36mWarning in the preCICE adapter: [0m
The solver's timestep cannot be larger than the coupling timestep. Adjusting from 0.000500 to 0.000100

Courant Number mean: 0 max: 0
Interface Courant Number mean: 0 max: 0
Time = 0.0001

PIMPLE: iteration 1
--> FOAM Warning : 
    From void Foam::lduMatrix::operator-=(const Foam::lduMatrix&)
    in file matrices/lduMatrix/lduMatrix/lduMatrixOperations.C at line 286
    Unknown matrix type combination
    this : diagonal:0 symmetric:1 asymmetric:0
    A    : diagonal:0 symmetric:0 asymmetric:0
   Normalisation factor = 1e-20
DICPCG:  Solving for cellDisplacementx, Initial residual = 4.8394e-07, Final residual = 4.8394e-07, No Iterations 0
   Normalisation factor = 1.2331e-10
DICPCG:  Solving for cellDisplacementz, Initial residual = 1, Final residual = 9.84089e-07, No Iterations 54
   Normalisation factor = 15000
smoothSolver:  Solving for alpha.water, Initial residual = 9.15718e-13, Final residual = 1.55431e-17, No Iterations 1
Phase-1 volume fraction = 0.25  Min(alpha.water) = 0  Max(alpha.water) = 1
MULES: Correcting alpha.water
Phase-1 volume fraction = 0.25  Min(alpha.water) = 0  Max(alpha.water) = 1
--> FOAM Warning : 
    From void Foam::lduMatrix::operator-=(const Foam::lduMatrix&)
    in file matrices/lduMatrix/lduMatrix/lduMatrixOperations.C at line 286
    Unknown matrix type combination
    this : diagonal:0 symmetric:0 asymmetric:1
    A    : diagonal:0 symmetric:0 asymmetric:0
   Normalisation factor = 8.13857e-09
smoothSolver:  Solving for Ux, Initial residual = 1, Final residual = 3.01733e-09, No Iterations 1
   Normalisation factor = 9401.25
smoothSolver:  Solving for Uz, Initial residual = 1, Final residual = 2.4852e-09, No Iterations 1
   Normalisation factor = 171104
DICPCG:  Solving for p_rgh, Initial residual = 1, Final residual = 1.37323e-07, No Iterations 1
   Normalisation factor = 421642
DICPCG:  Solving for p_rgh, Initial residual = 5.57265e-08, Final residual = 7.41417e-10, No Iterations 29
time step continuity errors : sum local = 1.56306e-08, global = -1.07457e-08, cumulative = -7.69765e-07
   Normalisation factor = 771979
DICPCG:  Solving for p_rgh, Initial residual = 6.72679e-08, Final residual = 8.08509e-10, No Iterations 14
   Normalisation factor = 759146
DICPCG:  Solving for p_rgh, Initial residual = 8.22176e-10, Final residual = 8.22176e-10, No Iterations 0
time step continuity errors : sum local = 3.12076e-08, global = 1.70465e-10, cumulative = -7.69594e-07
   Normalisation factor = 759146
DICPCG:  Solving for p_rgh, Initial residual = 8.24034e-10, Final residual = 8.24034e-10, No Iterations 0
   Normalisation factor = 759146
DICPCG:  Solving for p_rgh, Initial residual = 8.24034e-10, Final residual = 8.24034e-10, No Iterations 0
time step continuity errors : sum local = 3.12781e-08, global = 1.70474e-10, cumulative = -7.69424e-07
PIMPLE: iteration 2
--> FOAM Warning : 
    From void Foam::lduMatrix::operator-=(const Foam::lduMatrix&)
    in file matrices/lduMatrix/lduMatrix/lduMatrixOperations.C at line 286
    Unknown matrix type combination
    this : diagonal:0 symmetric:1 asymmetric:0
    A    : diagonal:0 symmetric:0 asymmetric:0
   Normalisation factor = 1e-20
DICPCG:  Solving for cellDisplacementx, Initial residual = 4.8394e-07, Final residual = 4.8394e-07, No Iterations 0
   Normalisation factor = 3.90112e-10
DICPCG:  Solving for cellDisplacementz, Initial residual = 3.1106e-07, Final residual = 3.1106e-07, No Iterations 0
   Normalisation factor = 15000
smoothSolver:  Solving for alpha.water, Initial residual = 3.51169e-09, Final residual = 6.68217e-17, No Iterations 1
Phase-1 volume fraction = 0.25  Min(alpha.water) = 0  Max(alpha.water) = 1
MULES: Correcting alpha.water
Phase-1 volume fraction = 0.25  Min(alpha.water) = 0  Max(alpha.water) = 1
--> FOAM Warning : 
    From void Foam::lduMatrix::operator-=(const Foam::lduMatrix&)
    in file matrices/lduMatrix/lduMatrix/lduMatrixOperations.C at line 286
    Unknown matrix type combination
    this : diagonal:0 symmetric:0 asymmetric:1
    A    : diagonal:0 symmetric:0 asymmetric:0
   Normalisation factor = 1.15833
smoothSolver:  Solving for Ux, Initial residual = 0.104175, Final residual = 6.88898e-11, No Iterations 1
   Normalisation factor = 1133.46
smoothSolver:  Solving for Uz, Initial residual = 0.180518, Final residual = 4.3359e-11, No Iterations 1
   Normalisation factor = 537805
DICPCG:  Solving for p_rgh, Initial residual = 3.16011e-08, Final residual = 8.75251e-10, No Iterations 11
   Normalisation factor = 542907
DICPCG:  Solving for p_rgh, Initial residual = 8.67025e-10, Final residual = 8.67025e-10, No Iterations 0
time step continuity errors : sum local = 2.35357e-08, global = -1.17873e-09, cumulative = -7.70602e-07
   Normalisation factor = 542907
DICPCG:  Solving for p_rgh, Initial residual = 8.85634e-10, Final residual = 8.85634e-10, No Iterations 0
   Normalisation factor = 542907
DICPCG:  Solving for p_rgh, Initial residual = 8.85634e-10, Final residual = 8.85634e-10, No Iterations 0
time step continuity errors : sum local = 2.40409e-08, global = -1.17873e-09, cumulative = -7.71781e-07
   Normalisation factor = 542907
DICPCG:  Solving for p_rgh, Initial residual = 8.85634e-10, Final residual = 8.85634e-10, No Iterations 0
   Normalisation factor = 542907
DICPCG:  Solving for p_rgh, Initial residual = 8.85634e-10, Final residual = 8.85634e-10, No Iterations 0
time step continuity errors : sum local = 2.40409e-08, global = -1.17873e-09, cumulative = -7.7296e-07
PIMPLE: iteration 3
--> FOAM Warning : 
    From void Foam::lduMatrix::operator-=(const Foam::lduMatrix&)
    in file matrices/lduMatrix/lduMatrix/lduMatrixOperations.C at line 286
    Unknown matrix type combination
    this : diagonal:0 symmetric:1 asymmetric:0
    A    : diagonal:0 symmetric:0 asymmetric:0
   Normalisation factor = 1e-20
DICPCG:  Solving for cellDisplacementx, Initial residual = 4.8394e-07, Final residual = 4.8394e-07, No Iterations 0
   Normalisation factor = 3.90112e-10
DICPCG:  Solving for cellDisplacementz, Initial residual = 3.1106e-07, Final residual = 3.1106e-07, No Iterations 0
   Normalisation factor = 15000
smoothSolver:  Solving for alpha.water, Initial residual = 2.83802e-09, Final residual = 1.86272e-17, No Iterations 1
Phase-1 volume fraction = 0.25  Min(alpha.water) = 0  Max(alpha.water) = 1
MULES: Correcting alpha.water
Phase-1 volume fraction = 0.25  Min(alpha.water) = 0  Max(alpha.water) = 1
--> FOAM Warning : 
    From void Foam::lduMatrix::operator-=(const Foam::lduMatrix&)
    in file matrices/lduMatrix/lduMatrix/lduMatrixOperations.C at line 286
    Unknown matrix type combination
    this : diagonal:0 symmetric:0 asymmetric:1
    A    : diagonal:0 symmetric:0 asymmetric:0
   Normalisation factor = 1.52926
smoothSolver:  Solving for Ux, Initial residual = 0.125057, Final residual = 9.82758e-11, No Iterations 1
   Normalisation factor = 1405.86
smoothSolver:  Solving for Uz, Initial residual = 0.0728841, Final residual = 1.75313e-11, No Iterations 1
   Normalisation factor = 673616
DICPCG:  Solving for p_rgh, Initial residual = 2.7465e-08, Final residual = 8.41084e-10, No Iterations 8
   Normalisation factor = 674384
DICPCG:  Solving for p_rgh, Initial residual = 8.40127e-10, Final residual = 8.40127e-10, No Iterations 0
time step continuity errors : sum local = 2.83284e-08, global = -8.50554e-10, cumulative = -7.7381e-07
   Normalisation factor = 674384
DICPCG:  Solving for p_rgh, Initial residual = 8.40287e-10, Final residual = 8.40287e-10, No Iterations 0
   Normalisation factor = 674384
DICPCG:  Solving for p_rgh, Initial residual = 8.40287e-10, Final residual = 8.40287e-10, No Iterations 0
time step continuity errors : sum local = 2.83338e-08, global = -8.50553e-10, cumulative = -7.74661e-07
   Normalisation factor = 674384
DICPCG:  Solving for p_rgh, Initial residual = 8.40287e-10, Final residual = 8.40287e-10, No Iterations 0
   Normalisation factor = 674384
DICPCG:  Solving for p_rgh, Initial residual = 8.40287e-10, Final residual = 8.40287e-10, No Iterations 0
time step continuity errors : sum local = 2.83338e-08, global = -8.50553e-10, cumulative = -7.75512e-07
PIMPLE: iteration 4
--> FOAM Warning : 
    From void Foam::lduMatrix::operator-=(const Foam::lduMatrix&)
    in file matrices/lduMatrix/lduMatrix/lduMatrixOperations.C at line 286
    Unknown matrix type combination
    this : diagonal:0 symmetric:1 asymmetric:0
    A    : diagonal:0 symmetric:0 asymmetric:0
   Normalisation factor = 1e-20
DICPCG:  Solving for cellDisplacementx, Initial residual = 4.8394e-07, Final residual = 4.8394e-07, No Iterations 0
   Normalisation factor = 3.90112e-10
DICPCG:  Solving for cellDisplacementz, Initial residual = 3.1106e-07, Final residual = 3.1106e-07, No Iterations 0
   Normalisation factor = 15000
smoothSolver:  Solving for alpha.water, Initial residual = 6.89814e-10, Final residual = 1.60943e-17, No Iterations 1
Phase-1 volume fraction = 0.25  Min(alpha.water) = 0  Max(alpha.water) = 1
MULES: Correcting alpha.water
Phase-1 volume fraction = 0.25  Min(alpha.water) = -2.52234e-47  Max(alpha.water) = 1
--> FOAM Warning : 
    From void Foam::lduMatrix::operator-=(const Foam::lduMatrix&)
    in file matrices/lduMatrix/lduMatrix/lduMatrixOperations.C at line 286
    Unknown matrix type combination
    this : diagonal:0 symmetric:0 asymmetric:1
    A    : diagonal:0 symmetric:0 asymmetric:0
   Normalisation factor = 1.03174
smoothSolver:  Solving for Ux, Initial residual = 0.226104, Final residual = 1.61097e-10, No Iterations 1
   Normalisation factor = 1555.08
smoothSolver:  Solving for Uz, Initial residual = 0.0329222, Final residual = 7.91627e-12, No Iterations 1
   Normalisation factor = 761510
DICPCG:  Solving for p_rgh, Initial residual = 7.53538e-09, Final residual = 8.89269e-10, No Iterations 2
   Normalisation factor = 761577
DICPCG:  Solving for p_rgh, Initial residual = 8.89191e-10, Final residual = 8.89191e-10, No Iterations 0
time step continuity errors : sum local = 3.38594e-08, global = -3.35265e-10, cumulative = -7.75847e-07
   Normalisation factor = 761577
DICPCG:  Solving for p_rgh, Initial residual = 8.89758e-10, Final residual = 8.89758e-10, No Iterations 0
   Normalisation factor = 761577
DICPCG:  Solving for p_rgh, Initial residual = 8.89758e-10, Final residual = 8.89758e-10, No Iterations 0
time step continuity errors : sum local = 3.3881e-08, global = -3.35265e-10, cumulative = -7.76182e-07
   Normalisation factor = 761577
DICPCG:  Solving for p_rgh, Initial residual = 8.89758e-10, Final residual = 8.89758e-10, No Iterations 0
   Normalisation factor = 761577
DICPCG:  Solving for p_rgh, Initial residual = 8.89758e-10, Final residual = 8.89758e-10, No Iterations 0
time step continuity errors : sum local = 3.3881e-08, global = -3.35265e-10, cumulative = -7.76517e-07
PIMPLE: iteration 5
--> FOAM Warning : 
    From void Foam::lduMatrix::operator-=(const Foam::lduMatrix&)
    in file matrices/lduMatrix/lduMatrix/lduMatrixOperations.C at line 286
    Unknown matrix type combination
    this : diagonal:0 symmetric:1 asymmetric:0
    A    : diagonal:0 symmetric:0 asymmetric:0
   Normalisation factor = 1e-20
DICPCG:  Solving for cellDisplacementx, Initial residual = 4.8394e-07, Final residual = 4.8394e-07, No Iterations 0
   Normalisation factor = 3.90112e-10
DICPCG:  Solving for cellDisplacementz, Initial residual = 3.1106e-07, Final residual = 3.1106e-07, No Iterations 0
   Normalisation factor = 15000
smoothSolver:  Solving for alpha.water, Initial residual = 8.86326e-09, Final residual = 3.09638e-17, No Iterations 1
Phase-1 volume fraction = 0.25  Min(alpha.water) = 0  Max(alpha.water) = 1
MULES: Correcting alpha.water
Phase-1 volume fraction = 0.25  Min(alpha.water) = -1.30402e-72  Max(alpha.water) = 1
--> FOAM Warning : 
    From void Foam::lduMatrix::operator-=(const Foam::lduMatrix&)
    in file matrices/lduMatrix/lduMatrix/lduMatrixOperations.C at line 286
    Unknown matrix type combination
    this : diagonal:0 symmetric:0 asymmetric:1
    A    : diagonal:0 symmetric:0 asymmetric:0
   Normalisation factor = 2.0798
smoothSolver:  Solving for Ux, Initial residual = 0.0422967, Final residual = 1.0806e-10, No Iterations 1
   Normalisation factor = 1899.51
smoothSolver:  Solving for Uz, Initial residual = 0.0134634, Final residual = 3.23888e-12, No Iterations 1
   Normalisation factor = 484044
DICPCG:  Solving for p_rgh, Initial residual = 7.15725e-08, Final residual = 7.42359e-10, No Iterations 11
   Normalisation factor = 484283
DICPCG:  Solving for p_rgh, Initial residual = 7.41992e-10, Final residual = 7.41992e-10, No Iterations 0
time step continuity errors : sum local = 1.79667e-08, global = -1.34107e-09, cumulative = -7.77858e-07
   Normalisation factor = 484283
DICPCG:  Solving for p_rgh, Initial residual = 7.43123e-10, Final residual = 7.43123e-10, No Iterations 0
   Normalisation factor = 484283
DICPCG:  Solving for p_rgh, Initial residual = 7.43123e-10, Final residual = 7.43123e-10, No Iterations 0
time step continuity errors : sum local = 1.79941e-08, global = -1.34107e-09, cumulative = -7.79199e-07
   Normalisation factor = 484283
DICPCG:  Solving for p_rgh, Initial residual = 7.43123e-10, Final residual = 7.43123e-10, No Iterations 0
   Normalisation factor = 484283
DICPCG:  Solving for p_rgh, Initial residual = 7.43123e-10, Final residual = 7.43123e-10, No Iterations 0
time step continuity errors : sum local = 1.79941e-08, global = -1.34107e-09, cumulative = -7.80541e-07
ExecutionTime = 1.79 s  ClockTime = 24 s

