/*---------------------------------------------------------------------------*\
| =========                 |                                                 |
| \\      /  F ield         | OpenFOAM: The Open Source CFD Toolbox           |
|  \\    /   O peration     | Version:  2112                                  |
|   \\  /    A nd           | Website:  www.openfoam.com                      |
|    \\/     M anipulation  |                                                 |
\*---------------------------------------------------------------------------*/
Build  : _d44c8318-20220111 OPENFOAM=2112 version=2112
Arch   : "LSB;label=32;scalar=64"
Exec   : setFields -case OpenFOAMCase
Date   : Aug 09 2024
Time   : 04:04:17
Host   : precicevm
PID    : 8453
I/O    : uncollated
Case   : /home/vagrant/Desktop/FOAMySeesExampleCases/FixedFixedBeam/RunCase/OpenFOAMCase
nProcs : 1
trapFpe: Floating point exception trapping enabled (FOAM_SIGFPE).
fileModificationChecking : Monitoring run-time modified files using timeStampMaster (fileModificationSkew 5, maxFileModificationPolls 20)
allowSystemOperations : Allowing user-supplied system call operations

// * * * * * * * * * * * * * * * * * * * * * * * * * * * * * * * * * * * * * //
Create time

Overriding DebugSwitches according to controlDict
    overset         0;

    dynamicOversetFvMesh 0;

    cellVolumeWeight 0;

    level (unregistered)
    lduMatrix       2;

    libs (unregistered)
Overriding OptimisationSwitches according to controlDict
    fileHandler (unregistered)
    maxThreadFileBufferSize 1e+09;

    maxMasterFileBufferSize 1e+09;

Overriding fileHandler to collated
I/O    : collated [threaded] (maxThreadFileBufferSize = 1e+09).
         Requires buffer large enough to collect all data or thread support
         enabled in MPI. If MPI thread support cannot be enabled, deactivate
         threading by setting maxThreadFileBufferSize to 0 in
         OpenFOAM etc/controlDict
Create mesh for time = 0

Reading setFieldsDict

Setting field default values
    Setting internal values of volScalarField alpha.water
    Setting internal values of volVectorField U

Setting field region values
    Adding cells with centre within boxes 1((0 -1 0) (10 1 0.5))
    Setting internal values of volScalarField alpha.water

End

